180
Lattice="22.14 0.0 0.0 0.0 21.304224933097192 0.0 0.0 0.0 12.0" Properties=species:S:1:pos:R:3 pbc="T T T"
C        0.10032749       1.30137337       0.00000000
C        0.06028239       2.98616704       0.00000000
C        1.46688801       3.72880693       0.00000000
C        1.41390123       5.21807661       0.00000000
C        0.10222544       5.76010376       0.00000000
C        0.07949252       7.39220909       0.00000000
C        1.59411138       7.96249442       0.00000000
C        1.68685980       9.33758674       0.00000000
C        0.41417453      10.17174981       0.00000000
C       -0.10658240      11.90270111       0.00000000
C        1.76272815      11.98841927       0.00000000
C        2.05979405      13.48754355       0.00000000
C        0.87634845      14.49919565       0.00000000
C        0.09486693      16.26823658       0.00000000
C        2.18552056      16.02698403       0.00000000
C        2.54288843      17.48731621       0.00000000
C        1.18229509      18.32094362       0.00000000
C        0.20701139      20.39557646       0.00000000
C        2.55910679      20.64430448       0.00000000
C        1.47388274       0.69359734       0.00000000
C        2.64565352       1.54145126       0.00000000
C        2.64153025       2.95696526       0.00000000
C        3.99572620       3.64721028       0.00000000
C        3.89234505       5.17427288       0.00000000
C        2.67308225       5.85313195       0.00000000
C        2.76154602       7.24977034       0.00000000
C        4.07632997       7.97282541       0.00000000
C        4.13087234       9.34776656       0.00000000
C        2.97057788      10.20286275       0.00000000
C        3.05062093      11.55893597       0.00000000
C        4.41394231      12.13992808       0.00000000
C        4.46213952      13.50044205       0.00000000
C        3.39147379      14.23475454       0.00000000
C        3.55756826      15.60359552       0.00000000
C        4.95186306      16.16254844       0.00000000
C        5.09389931      17.48310779       0.00000000
C        3.85412399      18.26939243       0.00000000
C        3.90846935      19.69757068       0.00000000
C        5.16826981      20.69217292       0.00000000
C        3.92563943       0.69900998       0.00000000
C        5.20135873       1.53560300       0.00000000
C        5.16786883       2.98495960       0.00000000
C        6.45760786       3.77188690       0.00000000
C        6.40177890       5.16672385       0.00000000
C        5.15417323       5.89614867       0.00000000
C        5.25272431       7.24858150       0.00000000
C        6.57545444       7.96617627       0.00000000
C        6.67047961       9.33725487       0.00000000
C        5.43937647      10.01567802       0.00000000
C        5.45626207      11.36248408       0.00000000
C        6.83421671      12.11705303       0.00000000
C        7.00119353      13.55690187       0.00000000
C        5.85814356      14.22945011       0.00000000
C        6.03196337      15.55262807       0.00000000
C        7.42271073      16.22092553       0.00000000
C        7.54826062      17.60536882       0.00000000
C        6.35108064      18.24461596       0.00000000
C        6.42103568      19.72410215       0.00000000
C        7.69774534      20.64818272       0.00000000
C        6.39911898       0.67294559       0.00000000
C        7.63957277       1.52917707       0.00000000
C        7.70164137       2.97357073       0.00000000
C        9.01760784       3.73832751       0.00000000
C        8.86608615       5.16586086       0.00000000
C        7.69520486       5.88572716       0.00000000
C        7.76971706       7.23117498       0.00000000
C        9.07730657       7.95926022       0.00000000
C        9.12687020       9.27827309       0.00000000
C        8.01822974       9.98702348       0.00000000
C        7.98744630      11.44690921       0.00000000
C        9.38928066      12.09748886       0.00000000
C        9.53015076      13.48584432       0.00000000
C        8.37684600      14.09510692       0.00000000
C        8.50536947      15.47904953       0.00000000
C        9.88245297      16.13097812       0.00000000
C       10.05368386      17.49396425       0.00000000
C        8.86986392      18.29498904       0.00000000
C        8.92432574      19.68942620       0.00000000
C       10.15766114      20.69416904       0.00000000
C        8.88668156       0.77069970       0.00000000
C       10.22615686       1.55828781       0.00000000
C       10.15410781       2.90355203       0.00000000
C       11.41021903       3.76640341       0.00000000
C       11.35317198       5.15868160       0.00000000
C       10.14122956       5.92232866       0.00000000
C       10.24770694       7.32890682       0.00000000
C       11.55386207       7.97182795       0.00000000
C       11.57689883       9.42549537       0.00000000
C       10.38952997      10.06102459       0.00000000
C       10.54720295      11.35038813       0.00000000
C       11.91431779      12.09831789       0.00000000
C       11.99634104      13.55008891       0.00000000
C       10.85299801      14.20336929       0.00000000
C       11.02503705      15.52097105       0.00000000
C       12.40188106      16.20476838       0.00000000
C       12.54038618      17.54180685       0.00000000
C       11.33463056      18.27311327       0.00000000
C       11.43884539      19.69381295       0.00000000
C       12.65555459      20.67616057       0.00000000
C       11.42310344       0.67270654       0.00000000
C       12.67108983       1.52462931       0.00000000
C       12.65883172       2.95911082       0.00000000
C       13.95973305       3.73952048       0.00000000
C       13.95421345       5.15577457       0.00000000
C       12.66526200       5.89186070       0.00000000
C       12.72039086       7.24662827       0.00000000
C       14.05636131       7.95892292       0.00000000
C       14.12888517       9.36813609       0.00000000
C       12.94196406      10.12163204       0.00000000
C       13.05041902      11.47952175       0.00000000
C       14.35423872      12.05501726       0.00000000
C       14.44356712      13.52254748       0.00000000
C       13.28188608      14.25660795       0.00000000
C       13.55657284      15.54649056       0.00000000
C       14.96794205      16.22988600       0.00000000
C       15.08359565      17.56324775       0.00000000
C       13.91762173      18.19473461       0.00000000
C       13.84804075      19.63537726       0.00000000
C       15.15252936      20.68850624       0.00000000
C       13.89319876       0.67689009       0.00000000
C       15.23975012       1.53500430       0.00000000
C       15.11788162       2.99261263       0.00000000
C       16.36046250       3.79061148       0.00000000
C       16.41468179       5.18842345       0.00000000
C       15.15988392       5.92141223       0.00000000
C       15.28700071       7.25185126       0.00000000
C       16.59800317       7.97628109       0.00000000
C       16.61105085       9.37043563       0.00000000
C       15.39006958      10.05184085       0.00000000
C       15.54057740      11.42597101       0.00000000
C       16.88469762      12.14005440       0.00000000
C       17.02411516      13.45889233       0.00000000
C       15.84321148      14.17002727       0.00000000
C       16.04615001      15.50988581       0.00000000
C       17.44925975      16.17848601       0.00000000
C       16.48838933      18.29645624       0.00000000
C       16.38441968      18.21670946       0.00000000
C       16.28436013      19.74166622       0.00000000
C       17.53213545      21.23758021       0.00000000
C       16.40666936       0.67059052       0.00000000
C       17.76674220       1.56953444       0.00000000
C       17.60529314       2.98273814       0.00000000
C       18.98865315       3.70067506       0.00000000
C       18.96453042       5.19586566       0.00000000
C       17.72143641       5.96457715       0.00000000
C       17.73882711       7.29315172       0.00000000
C       19.06087938       8.02276240       0.00000000
C       19.13121856       9.36206773       0.00000000
C       17.89591251      10.17782605       0.00000000
C       18.04988707      11.40573479       0.00000000
C       19.34892463      12.06889270       0.00000000
C       19.55934121      13.45987383       0.00000000
C       18.41920222      14.13011632       0.00000000
C       18.52991989      15.49457699       0.00000000
C       19.87103396      16.30211723       0.00000000
C       18.84810218      18.25280053       0.00000000
C       17.55543682      17.47921024       0.00000000
C       17.84607599      20.23632322       0.00000000
C       19.11233773      19.62132780       0.00000000
C       18.94729906       0.67638690       0.00000000
C       20.20384407       1.48993169       0.00000000
C       20.20889141       3.07947872       0.00000000
C       21.71673339       3.59225040       0.00000000
C       21.72697130       4.83346473       0.00000000
C       20.23294972       5.92432336       0.00000000
C       20.24231866       7.46093882       0.00000000
C       21.91615236       7.90004967       0.00000000
C       21.70241180       9.18920462       0.00000000
C       20.36767088      10.04196984       0.00000000
C       20.43651411      11.49699010       0.00000000
C       21.96700285      12.18370907       0.00000000
C       21.62512083      13.45103799       0.00000000
C       20.68807149      14.20768993       0.00000000
C       20.30989099      15.81980521       0.00000000
C       21.74808434      16.27301793       0.00000000
C       21.66217734      17.65508137       0.00000000
C       20.19669170      17.63998725       0.00000000
C       20.24593249      20.66148969       0.00000000
C       21.46854698      20.66645873       0.00000000
C       21.63239460       0.57707950       0.00000000
