180
Lattice="22.14 0.0 0.0 0.0 21.304224933097192 0.0 0.0 0.0 12.0" Properties=species:S:1:pos:R:3 pbc="T T T"
C       -0.04934372       1.37323920       0.00000000
C       -0.28298725       3.25634760       0.00000000
C        1.41201907       3.59857821       0.00000000
C        1.20246252       5.32535815       0.00000000
C       -0.56679369       5.17746794       0.00000000
C        0.09944589       7.31065280       0.00000000
C        1.63405599       7.92777357       0.00000000
C        1.43454829       9.50815426       0.00000000
C       -0.50907512       9.33435647       0.00000000
C        0.32869197      11.45116577       0.00000000
C        1.88607244      12.01050006       0.00000000
C        1.90115808      13.55289371       0.00000000
C       -0.27505342      13.45786973       0.00000000
C       -0.07648406      16.28852529       0.00000000
C        1.06199289      15.17261589       0.00000000
C        2.44175186      17.31605268       0.00000000
C        1.25689934      18.43022122       0.00000000
C        0.11168768      20.22009022       0.00000000
C        2.54968492      20.42681216       0.00000000
C        1.41329653       0.61362833       0.00000000
C        2.67537860       1.47460403       0.00000000
C        2.71106974       2.93988306       0.00000000
C        3.92442259       3.61890686       0.00000000
C        3.95367595       5.12462225       0.00000000
C        2.60889680       5.77257146       0.00000000
C        2.81841899       7.23706614       0.00000000
C        4.04084170       7.97873155       0.00000000
C        4.19680573       9.39976507       0.00000000
C        2.96147510      10.01771140       0.00000000
C        3.11856641      11.37189190       0.00000000
C        4.37186964      12.12009928       0.00000000
C        4.57844457      13.51203596       0.00000000
C        3.37389549      14.10426709       0.00000000
C        3.40133966      15.57461136       0.00000000
C        4.83483828      16.16757844       0.00000000
C        5.06398504      17.48514255       0.00000000
C        3.74587209      18.20665891       0.00000000
C        3.96291230      19.55931803       0.00000000
C        5.15118810      20.67446470       0.00000000
C        3.91736101       0.51209348       0.00000000
C        5.13953537       1.50309045       0.00000000
C        5.13558207       2.94652174       0.00000000
C        6.47134801       3.73117159       0.00000000
C        6.47058865       5.16976595       0.00000000
C        5.20742255       5.86518472       0.00000000
C        5.31622077       7.27944131       0.00000000
C        6.57759787       7.94543072       0.00000000
C        6.75411250       9.33905181       0.00000000
C        5.45786784      10.00187606       0.00000000
C        5.49199411      11.36148455       0.00000000
C        6.80093075      12.01875630       0.00000000
C        7.10754188      13.43128118       0.00000000
C        5.88190892      14.15192119       0.00000000
C        6.00580391      15.51179847       0.00000000
C        7.40127272      16.16503645       0.00000000
C        7.55546819      17.51414186       0.00000000
C        6.34575846      18.16862370       0.00000000
C        6.42787862      19.63524125       0.00000000
C        7.67084516      20.64555925       0.00000000
C        6.36010061       0.70934358       0.00000000
C        7.65475263       1.54064633       0.00000000
C        7.71255330       2.96439785       0.00000000
C        9.02337362       3.68237885       0.00000000
C        8.93812888       5.12200331       0.00000000
C        7.64387609       5.78875080       0.00000000
C        7.78955779       7.20932635       0.00000000
C        9.03378794       8.02557368       0.00000000
C        9.19650024       9.39882095       0.00000000
C        7.93253332      10.05383074       0.00000000
C        8.06373811      11.37303032       0.00000000
C        9.29511774      12.06728564       0.00000000
C        9.51784030      13.48834037       0.00000000
C        8.32560018      14.16631569       0.00000000
C        8.58282886      15.51945920       0.00000000
C        9.87089311      16.17076207       0.00000000
C       10.07611230      17.49000718       0.00000000
C        8.83447410      18.23030130       0.00000000
C        8.86208821      19.62735254       0.00000000
C       10.10203274      20.65677351       0.00000000
C        8.86895019       0.72538971       0.00000000
C       10.22130056       1.55348284       0.00000000
C       10.17574934       2.87383702       0.00000000
C       11.44130764       3.56039168       0.00000000
C       11.37838882       5.04185513       0.00000000
C       10.17390594       5.77750280       0.00000000
C       10.21680397       7.23493008       0.00000000
C       11.54165731       7.96294903       0.00000000
C       11.55926663       9.39962321       0.00000000
C       10.35813216      10.05246069       0.00000000
C       10.52223968      11.39793752       0.00000000
C       11.84732764      12.02222915       0.00000000
C       12.08319616      13.48461476       0.00000000
C       10.86273674      14.12552260       0.00000000
C       11.06582752      15.37129408       0.00000000
C       12.26897814      16.16588734       0.00000000
C       12.63444319      17.51886375       0.00000000
C       11.31256758      18.15529645       0.00000000
C       11.46083323      19.64707365       0.00000000
C       12.68256681      20.68645291       0.00000000
C       11.38260521       0.58347229       0.00000000
C       12.72873092       1.53958820       0.00000000
C       12.64275539       2.89444093       0.00000000
C       13.89750970       3.62667562       0.00000000
C       13.91787550       5.13028464       0.00000000
C       12.61307384       5.85096920       0.00000000
C       12.72297695       7.21248213       0.00000000
C       14.01826601       7.93014052       0.00000000
C       14.20023623       9.36231267       0.00000000
C       12.87989008      10.01684893       0.00000000
C       13.12169475      11.40580296       0.00000000
C       14.36037889      12.01786465       0.00000000
C       14.47748752      13.45342354       0.00000000
C       13.29025555      14.19233796       0.00000000
C       13.45420648      15.45356954       0.00000000
C       14.85136598      16.16747918       0.00000000
C       15.09448154      17.52394286       0.00000000
C       13.83611481      18.18038465       0.00000000
C       13.83701806      19.65197906       0.00000000
C       15.21593480      20.23812247       0.00000000
C       13.88775800       0.55336110       0.00000000
C       15.20257556       1.52811436       0.00000000
C       15.14434628       2.94107584       0.00000000
C       16.39999585       3.68838142       0.00000000
C       16.45992188       5.11222009       0.00000000
C       15.11271962       5.81923919       0.00000000
C       15.29903887       7.23525202       0.00000000
C       16.51741827       7.95565861       0.00000000
C       16.61361761       9.41338093       0.00000000
C       15.32809424      10.04567364       0.00000000
C       15.53490868      11.36150188       0.00000000
C       16.82399025      12.09066203       0.00000000
C       17.03614037      13.51534975       0.00000000
C       15.75466383      14.14899997       0.00000000
C       16.09696025      15.46352906       0.00000000
C       17.35424923      16.17291252       0.00000000
C       17.55372526      17.53164294       0.00000000
C       16.40442322      18.27324868       0.00000000
C       15.09600177      21.44068161       0.00000000
C       16.77635693      19.89964913       0.00000000
C       16.37088956       0.53623237       0.00000000
C       17.63624094       1.55641611       0.00000000
C       17.68003110       2.98417695       0.00000000
C       18.91229901       3.66298071       0.00000000
C       18.89113306       5.14757392       0.00000000
C       17.70927216       5.91868883       0.00000000
C       17.78333108       7.27342559       0.00000000
C       19.02744061       8.01730289       0.00000000
C       19.20953913       9.39904978       0.00000000
C       17.90408616      10.05341908       0.00000000
C       17.99752089      11.36965057       0.00000000
C       19.34309139      12.07374179       0.00000000
C       19.46202681      13.52987576       0.00000000
C       18.26395216      14.19694703       0.00000000
C       18.48478490      15.47692373       0.00000000
C       19.83263086      16.13264491       0.00000000
C       19.94827804      17.51524014       0.00000000
C       18.81337523      18.25370589       0.00000000
C       18.67104267      19.78462147       0.00000000
C       20.07019757      20.15332521       0.00000000
C       18.80945116       0.59508196       0.00000000
C       19.82755245       1.51389551       0.00000000
C       19.94625156       2.97087718       0.00000000
C       20.84943188       3.52580442       0.00000000
C       20.65295636       5.44482115       0.00000000
C       20.04490235       5.85605976       0.00000000
C       20.11933827       7.26622961       0.00000000
C       20.60180908       7.64234704       0.00000000
C       22.00943985       9.33539734       0.00000000
C       20.23826269      10.03711704       0.00000000
C       20.60454017      11.42944183       0.00000000
C       22.18600907      12.01737609       0.00000000
C       21.90927612      13.58264643       0.00000000
C       20.69771355      14.13468357       0.00000000
C       20.99552463      15.51208082       0.00000000
C       22.07847152      16.48363730       0.00000000
C       20.55652192      17.91597566       0.00000000
C       21.00284472      18.08976253       0.00000000
C       20.59103117      22.94129235       0.00000000
C       20.00229669      21.49374416       0.00000000
C       20.77212265       1.24321925       0.00000000
