180
Lattice="22.14 0.0 0.0 0.0 21.304224933097192 0.0 0.0 0.0 12.0" Properties=species:S:1:pos:R:3 pbc="T T T"
C        0.10768658       1.41513627       0.00000000
C       -0.34696032       3.41456353       0.00000000
C        1.42149868       3.49649725       0.00000000
C        1.53635134       5.14760695       0.00000000
C        0.18346908       5.83987045       0.00000000
C       -0.31557985       7.77210399       0.00000000
C        1.63956724       7.84097010       0.00000000
C        1.65004845       9.37352363       0.00000000
C        0.39399899      10.11698088       0.00000000
C       -0.24615877      11.97460954       0.00000000
C        1.44220512      11.81995885       0.00000000
C        2.04159219      13.30307980       0.00000000
C        0.98200241      14.37798548       0.00000000
C        0.09701479      16.15943154       0.00000000
C        2.32556525      16.03241357       0.00000000
C        2.41174852      17.51105431       0.00000000
C        1.23548824      18.37969076       0.00000000
C        0.17445266      20.20254718       0.00000000
C        2.60869180      20.40213553       0.00000000
C        1.49085170       0.59918330       0.00000000
C        2.83977321       1.50546041       0.00000000
C        2.67481959       2.95741298       0.00000000
C        3.95241387       3.68735009       0.00000000
C        3.84640881       5.09550990       0.00000000
C        2.70909475       5.83616877       0.00000000
C        2.77659836       7.25749818       0.00000000
C        4.14029973       7.87558394       0.00000000
C        4.18443683       9.34544691       0.00000000
C        3.08020987      10.07084179       0.00000000
C        2.85074074      11.51478758       0.00000000
C        4.37247754      12.02823565       0.00000000
C        4.56435934      13.45650292       0.00000000
C        3.38134667      14.04504630       0.00000000
C        3.56803345      15.46095858       0.00000000
C        4.93207825      16.13147052       0.00000000
C        5.00406114      17.42658918       0.00000000
C        3.80803967      18.15013370       0.00000000
C        3.94049274      19.56288924       0.00000000
C        5.15594094      20.57409898       0.00000000
C        3.82129802       0.43557128       0.00000000
C        5.17349712       1.54562341       0.00000000
C        4.99408066       3.02482025       0.00000000
C        6.51588728       3.64598158       0.00000000
C        6.33881511       5.11042906       0.00000000
C        5.19781879       5.89980634       0.00000000
C        5.25176224       7.22759395       0.00000000
C        6.51208077       7.90437641       0.00000000
C        6.70982294       9.25555117       0.00000000
C        5.47186014       9.97229548       0.00000000
C        5.48751024      11.37524653       0.00000000
C        6.89212876      12.04257290       0.00000000
C        7.20755386      13.48184534       0.00000000
C        5.92504331      14.04644480       0.00000000
C        5.98584757      15.43514421       0.00000000
C        7.38004377      16.14898547       0.00000000
C        7.53489649      17.51842932       0.00000000
C        6.34186884      18.16564627       0.00000000
C        6.37720367      19.61765789       0.00000000
C        7.67823546      20.56931495       0.00000000
C        6.29292765       0.61329497       0.00000000
C        7.74128527       1.50013493       0.00000000
C        7.60284310       2.90607974       0.00000000
C        8.94167274       3.66802750       0.00000000
C        8.82114219       5.14760520       0.00000000
C        7.75736077       5.79144866       0.00000000
C        7.64452623       7.26679806       0.00000000
C        9.06742024       7.93561459       0.00000000
C        9.15976751       9.37200586       0.00000000
C        7.94109748      10.00391490       0.00000000
C        8.00658238      11.33235238       0.00000000
C        9.35933991      12.04206403       0.00000000
C        9.60424067      13.48039648       0.00000000
C        8.41214402      14.06513372       0.00000000
C        8.55372713      15.43496385       0.00000000
C        9.96488276      16.14898734       0.00000000
C        9.99147980      17.52448303       0.00000000
C        8.84985553      18.19366173       0.00000000
C        8.86671910      19.60466400       0.00000000
C       10.18608566      20.55459823       0.00000000
C        8.85009225       0.56739562       0.00000000
C       10.24014050       1.44685847       0.00000000
C       10.16844068       2.92324251       0.00000000
C       11.38413968       3.64874435       0.00000000
C       11.37012515       5.09159084       0.00000000
C       10.09294850       5.81762017       0.00000000
C       10.26814656       7.19650968       0.00000000
C       11.60571299       7.94937795       0.00000000
C       11.47010835       9.29100453       0.00000000
C       10.43966580      10.04147498       0.00000000
C       10.44798096      11.30763548       0.00000000
C       11.86871599      11.99093816       0.00000000
C       12.01269222      13.40781396       0.00000000
C       10.91826072      14.10727399       0.00000000
C       11.03950151      15.42821332       0.00000000
C       12.47935996      16.07464236       0.00000000
C       12.48961655      17.44599957       0.00000000
C       11.32934790      18.14780545       0.00000000
C       11.42078859      19.59884203       0.00000000
C       12.68940123      20.56831745       0.00000000
C       11.40740037       0.55958272       0.00000000
C       12.81535983       1.45001735       0.00000000
C       12.56866400       2.92258965       0.00000000
C       14.04667058       3.59051860       0.00000000
C       13.86487329       5.13625014       0.00000000
C       12.69798992       5.85563340       0.00000000
C       12.71822021       7.14944887       0.00000000
C       14.03198608       7.86364356       0.00000000
C       14.08804307       9.24944064       0.00000000
C       12.94047771      10.05182196       0.00000000
C       13.10353937      11.40706162       0.00000000
C       14.43034363      11.95034763       0.00000000
C       14.46955683      13.40194627       0.00000000
C       13.31901786      14.10792137       0.00000000
C       13.56955070      15.46185778       0.00000000
C       14.87484022      16.14347204       0.00000000
C       15.00235403      17.47568879       0.00000000
C       13.83711530      18.12368558       0.00000000
C       13.91104998      19.59773324       0.00000000
C       15.15561914      20.61812179       0.00000000
C       13.87666127       0.39945254       0.00000000
C       15.29160338       1.48368711       0.00000000
C       15.09918031       2.85191417       0.00000000
C       16.43336172       3.62484359       0.00000000
C       16.35246066       5.12932995       0.00000000
C       15.19717521       5.81002802       0.00000000
C       15.28890363       7.27883389       0.00000000
C       16.60757040       8.01644761       0.00000000
C       16.56452173       9.38868945       0.00000000
C       15.38374329       9.96677671       0.00000000
C       15.56672965      11.37568005       0.00000000
C       16.89640043      12.06500207       0.00000000
C       16.92671655      13.41916262       0.00000000
C       15.78355071      14.12030066       0.00000000
C       16.00906146      15.41135738       0.00000000
C       17.38695529      16.06045258       0.00000000
C       17.58094604      17.45682809       0.00000000
C       16.38714601      18.11706788       0.00000000
C       16.21196431      19.66365461       0.00000000
C       17.52745102      21.36204509       0.00000000
C       16.34356316       0.41731021       0.00000000
C       17.65972623       1.53259052       0.00000000
C       17.66610865       2.96933515       0.00000000
C       18.96648232       3.63201993       0.00000000
C       18.87128862       5.10309843       0.00000000
C       17.67917027       5.83411017       0.00000000
C       17.74293031       7.21167526       0.00000000
C       19.05400133       8.03894450       0.00000000
C       19.08598917       9.34704036       0.00000000
C       17.93031074       9.98830828       0.00000000
C       18.02031853      11.37560041       0.00000000
C       19.39060426      12.13228474       0.00000000
C       19.50913288      13.48368987       0.00000000
C       18.34853620      14.07510421       0.00000000
C       18.51730953      15.40299630       0.00000000
C       19.86032252      16.27406537       0.00000000
C       18.94737337      19.56834432       0.00000000
C       18.83625973      18.11970238       0.00000000
C       17.71429955      20.17014867       0.00000000
C       20.27994869      20.28730528       0.00000000
C       18.81912987       0.55036693       0.00000000
C       20.18771348       1.54592128       0.00000000
C       20.02601647       3.05408676       0.00000000
C       21.61497020       4.79719802       0.00000000
C       21.61553573       4.70487371       0.00000000
C       20.15255988       5.88994688       0.00000000
C       20.18552621       7.32917731       0.00000000
C       22.25362464       3.73714732       0.00000000
C       21.30907489       9.09899905       0.00000000
C       20.29684320      10.02246842       0.00000000
C       20.28152360      11.47019721       0.00000000
C       21.17062233      12.37020567       0.00000000
C       21.95875187      13.62181436       0.00000000
C       20.87979978      14.22691900       0.00000000
C       20.78804662      15.60143186       0.00000000
C       22.04434848      16.66361470       0.00000000
C       21.81075528      16.79312304       0.00000000
C       20.13977652      17.70444684       0.00000000
C       19.93306458      21.39183214       0.00000000
C       21.26194076      20.01714546       0.00000000
C       21.36447095       1.31329028       0.00000000
