198
Lattice="21.288461538461537 0.0 0.0 0.0 22.884615384615383 0.0 0.0 0.0 11.538461538461538" Properties=species:S:1:pos:R:3 pbc="T T T"
C       -0.11509474       0.61519918       0.00000000
C        1.04123716       1.53210910       0.00000000
C        1.08077389       2.93922680       0.00000000
C       -0.11316155       3.58109518       0.00000000
C       -0.11306491       4.87580420       0.00000000
C        1.04090590       5.65941804       0.00000000
C        1.19435497       7.07570036       0.00000000
C        0.06777564       7.81909600       0.00000000
C        0.16455769       9.12162921       0.00000000
C        1.25388702       9.79220144       0.00000000
C        1.50392754      11.09700426       0.00000000
C        0.36635098      11.72061453       0.00000000
C        0.56342005      13.12869268       0.00000000
C        1.73445308      13.78507785       0.00000000
C        1.95582987      15.04943006       0.00000000
C        0.76986084      15.68370307       0.00000000
C        1.02693041      17.05563769       0.00000000
C        2.17034833      17.73645982       0.00000000
C        2.24907516      19.05153030       0.00000000
C        1.11114077      19.82758582       0.00000000
C        1.12746080      21.11990726       0.00000000
C        2.29461724      21.37721273       0.00000000
C        2.19871298       0.71904537       0.00000000
C        3.34759455       1.55288425       0.00000000
C        3.41731282       2.88576738       0.00000000
C        2.23673264       3.61929411       0.00000000
C        2.21820814       4.98485207       0.00000000
C        3.32950599       5.68085792       0.00000000
C        3.55318951       7.04857114       0.00000000
C        2.33105546       7.75189950       0.00000000
C        2.41740635       9.12712211       0.00000000
C        3.66203440       9.80504963       0.00000000
C        3.79010605      11.14481369       0.00000000
C        2.59476806      11.77430610       0.00000000
C        2.85988473      13.12011211       0.00000000
C        4.03275586      13.76746758       0.00000000
C        4.31091056      15.07319255       0.00000000
C        3.07263012      15.75696874       0.00000000
C        3.36448802      17.07207232       0.00000000
C        4.49000941      17.75634058       0.00000000
C        4.66353427      19.09602393       0.00000000
C        3.40634898      19.76500435       0.00000000
C        3.49033157      20.91763527       0.00000000
C        4.60669497      21.39610808       0.00000000
C        4.55946549       0.72973245       0.00000000
C        5.77617689       1.55285759       0.00000000
C        5.79573771       2.95135676       0.00000000
C        4.62293746       3.61687252       0.00000000
C        4.60380111       5.00066607       0.00000000
C        5.77895392       5.70052119       0.00000000
C        5.99260025       7.06160708       0.00000000
C        4.72674281       7.74483903       0.00000000
C        4.87323218       9.11433558       0.00000000
C        6.05889540       9.77616739       0.00000000
C        6.24585637      11.09002358       0.00000000
C        5.00901522      11.76928479       0.00000000
C        5.29991509      13.11826762       0.00000000
C        6.49038429      13.78150369       0.00000000
C        6.70808668      15.09360814       0.00000000
C        5.49271921      15.75602495       0.00000000
C        5.74772093      17.09505377       0.00000000
C        7.02295724      17.73818884       0.00000000
C        7.10607586      19.15457306       0.00000000
C        5.88746623      19.74141392       0.00000000
C        5.84278628      20.78110245       0.00000000
C        6.87706375      21.42013586       0.00000000
C        6.99121605       0.76577634       0.00000000
C        8.22952101       1.55292936       0.00000000
C        8.31417880       2.92759747       0.00000000
C        7.03295421       3.60510468       0.00000000
C        7.03297706       5.02716044       0.00000000
C        8.26190578       5.70536422       0.00000000
C        8.37567648       7.09825393       0.00000000
C        7.15097108       7.73413786       0.00000000
C        7.31387705       9.09531287       0.00000000
C        8.46356262       9.79572137       0.00000000
C        8.68650494      11.14810270       0.00000000
C        7.44194453      11.76129965       0.00000000
C        7.72327826      13.11874008       0.00000000
C        8.90053583      13.78283596       0.00000000
C        9.16167619      15.09196776       0.00000000
C        7.96265517      15.75195382       0.00000000
C        8.19626156      17.07222015       0.00000000
C        9.39812210      17.73372600       0.00000000
C        9.51031150      19.08592073       0.00000000
C        8.35622172      19.74697666       0.00000000
C        8.21574219      20.89006309       0.00000000
C        9.29207236      21.39003745       0.00000000
C        9.42258868       0.76049695       0.00000000
C       10.68949565       1.55285760       0.00000000
C       10.69608160       2.87693336       0.00000000
C        9.50543775       3.64630213       0.00000000
C        9.46334943       5.03436866       0.00000000
C       10.65841239       5.75196207       0.00000000
C       10.81691086       7.09022633       0.00000000
C        9.63674075       7.77145370       0.00000000
C        9.68953867       9.13655838       0.00000000
C       10.95153510       9.78533030       0.00000000
C       11.10171735      11.10656992       0.00000000
C        9.90202141      11.79286824       0.00000000
C       10.09780632      13.13635683       0.00000000
C       11.33713234      13.74947348       0.00000000
C       11.62080002      15.06460281       0.00000000
C       10.39280510      15.72220255       0.00000000
C       10.62920486      17.06003962       0.00000000
C       11.82745069      17.73005468       0.00000000
C       11.97213214      19.12687695       0.00000000
C       10.71355771      19.73654751       0.00000000
C       10.63060460      20.83084332       0.00000000
C       11.65936773      21.44388548       0.00000000
C       11.86404526       0.74537278       0.00000000
C       13.09556660       1.55312726       0.00000000
C       13.13604437       2.91168181       0.00000000
C       11.92400982       3.62888612       0.00000000
C       11.91327039       5.01340504       0.00000000
C       13.10557715       5.72237116       0.00000000
C       13.26433543       7.06054339       0.00000000
C       12.02254145       7.74810033       0.00000000
C       12.12570884       9.12590114       0.00000000
C       13.33559616       9.80553957       0.00000000
C       13.62143250      11.14184009       0.00000000
C       12.31388297      11.73791344       0.00000000
C       12.55631916      13.12492940       0.00000000
C       13.75567252      13.79128907       0.00000000
C       14.00191567      15.09463701       0.00000000
C       12.81873674      15.78812445       0.00000000
C       13.05347773      17.07859434       0.00000000
C       14.31301776      17.68699237       0.00000000
C       14.38336982      19.11247592       0.00000000
C       13.22753910      19.77960785       0.00000000
C       13.07284997      20.95645374       0.00000000
C       14.19949100      21.43767890       0.00000000
C       14.34839283       0.69920644       0.00000000
C       15.59500987       1.58022426       0.00000000
C       15.60677349       2.96065143       0.00000000
C       14.35878553       3.60354969       0.00000000
C       14.35680850       5.02725420       0.00000000
C       15.55297589       5.73869223       0.00000000
C       15.75424773       7.10321168       0.00000000
C       14.44730333       7.74444149       0.00000000
C       14.62409192       9.12308065       0.00000000
C       15.78571889       9.77016830       0.00000000
C       16.00944548      11.12256157       0.00000000
C       14.78575920      11.76990224       0.00000000
C       14.96216132      13.12476172       0.00000000
C       16.13031954      13.80788190       0.00000000
C       16.52749827      15.09208577       0.00000000
C       15.28828360      15.71805625       0.00000000
C       15.55880929      17.05885690       0.00000000
C       16.75736794      17.71368144       0.00000000
C       16.78781631      19.09453206       0.00000000
C       15.62413923      19.72410591       0.00000000
C       15.48654254      20.86645928       0.00000000
C       15.67423680      22.49382396       0.00000000
C       16.80064119       0.74911110       0.00000000
C       18.03059605       1.60652259       0.00000000
C       18.02703703       2.98732827       0.00000000
C       16.78342579       3.66009684       0.00000000
C       16.77905089       5.05735778       0.00000000
C       17.96786171       5.74473674       0.00000000
C       18.20449023       7.06358445       0.00000000
C       16.96989368       7.80062000       0.00000000
C       17.04182364       9.17820435       0.00000000
C       18.25739399       9.81845262       0.00000000
C       18.36860555      11.11083459       0.00000000
C       17.19363168      11.84527870       0.00000000
C       17.36623546      13.16378962       0.00000000
C       18.60373859      13.75504645       0.00000000
C       18.88872188      15.07152434       0.00000000
C       17.66976367      15.74233036       0.00000000
C       17.97054379      17.05772551       0.00000000
C       19.14932581      17.74865071       0.00000000
C       19.24838161      19.10820643       0.00000000
C       18.02416345      19.94176377       0.00000000
C       16.35789326      21.36369054       0.00000000
C       18.92626243      23.49206178       0.00000000
C       19.15238292       0.73879794       0.00000000
C       20.32145296       1.55196092       0.00000000
C       20.36122895       2.95855256       0.00000000
C       19.21972444       3.65753872       0.00000000
C       19.21478520       5.07745147       0.00000000
C       20.35998858       5.76685671       0.00000000
C       20.52360149       7.14222363       0.00000000
C       19.32729657       7.82475622       0.00000000
C       19.45847553       9.13919422       0.00000000
C       20.58427040       9.86264905       0.00000000
C       20.73041703      11.11017335       0.00000000
C       19.56771303      11.75978794       0.00000000
C       19.81665580      13.13803645       0.00000000
C       21.00962978      13.85030082       0.00000000
C       21.37816956      14.96916545       0.00000000
C       20.11645439      15.70891717       0.00000000
C       20.32069468      17.09434385       0.00000000
C       21.53733613      17.96375590       0.00000000
C       21.08126973      21.19644674       0.00000000
C       20.47002323      19.68698320       0.00000000
C       20.37194494      20.99583379       0.00000000
C       19.43332156      23.49648717       0.00000000
