198
Lattice="21.288461538461537 0.0 0.0 0.0 22.884615384615383 0.0 0.0 0.0 11.538461538461538" Properties=species:S:1:pos:R:3 pbc="T T T"
C       -0.06858660       0.65900666       0.00000000
C        1.12230059       1.54185536       0.00000000
C        1.14027240       2.94844986       0.00000000
C        0.02315963       3.62344730       0.00000000
C       -0.07117840       4.90657986       0.00000000
C        1.12338487       5.68067731       0.00000000
C        1.22313815       7.10224469       0.00000000
C        0.16423778       7.84259508       0.00000000
C        0.21542214       9.18983673       0.00000000
C        1.34027818       9.82148411       0.00000000
C        1.54429383      11.14534600       0.00000000
C        0.43334183      11.74800663       0.00000000
C        0.61383526      13.16113636       0.00000000
C        1.81673917      13.81737807       0.00000000
C        1.99771945      15.08269752       0.00000000
C        0.85853338      15.72157976       0.00000000
C        1.04919657      17.09376789       0.00000000
C        2.24445643      17.77160132       0.00000000
C        2.28517950      19.07731360       0.00000000
C        1.16225513      19.83865154       0.00000000
C        1.14722374      21.10507555       0.00000000
C        2.38715314      21.37297489       0.00000000
C        2.24487203       0.74934632       0.00000000
C        3.42056054       1.57754971       0.00000000
C        3.46904044       2.90852079       0.00000000
C        2.32141890       3.64864898       0.00000000
C        2.25386162       5.02449351       0.00000000
C        3.40926037       5.69147493       0.00000000
C        3.56349583       7.06510117       0.00000000
C        2.41666771       7.77808617       0.00000000
C        2.46971131       9.15585805       0.00000000
C        3.71370791       9.82739652       0.00000000
C        3.84668116      11.15878679       0.00000000
C        2.68272184      11.79771066       0.00000000
C        2.92704868      13.14180908       0.00000000
C        4.09532229      13.79998328       0.00000000
C        4.36377613      15.11482738       0.00000000
C        3.14484398      15.77444722       0.00000000
C        3.38534141      17.08709096       0.00000000
C        4.52025917      17.76097693       0.00000000
C        4.68747204      19.08689604       0.00000000
C        3.45239151      19.76219648       0.00000000
C        3.50384995      20.90614775       0.00000000
C        3.56827144      23.50284998       0.00000000
C        4.61578497       0.76875338       0.00000000
C        5.85161497       1.57855259       0.00000000
C        5.85643669       2.96769347       0.00000000
C        4.68597575       3.65096448       0.00000000
C        4.65723263       5.04549195       0.00000000
C        5.85024427       5.73882856       0.00000000
C        6.03099509       7.10962899       0.00000000
C        4.77803558       7.76299673       0.00000000
C        4.90782696       9.14311297       0.00000000
C        6.09902575       9.79672104       0.00000000
C        6.27545394      11.11788704       0.00000000
C        5.06106975      11.78243395       0.00000000
C        5.32817646      13.12101213       0.00000000
C        6.53325710      13.79509756       0.00000000
C        6.76109668      15.12155005       0.00000000
C        5.57486536      15.78137333       0.00000000
C        5.77420510      17.11438696       0.00000000
C        7.04588822      17.77364603       0.00000000
C        7.12479293      19.15735800       0.00000000
C        5.89219423      19.75274654       0.00000000
C        5.96053548      20.82987924       0.00000000
C        6.56380441      23.11603810       0.00000000
C        7.01961322       0.78977902       0.00000000
C        8.29446545       1.57772314       0.00000000
C        8.36544193       2.92604150       0.00000000
C        7.11445691       3.63511699       0.00000000
C        7.06589987       5.06050347       0.00000000
C        8.32006067       5.72425722       0.00000000
C        8.40942312       7.12715442       0.00000000
C        7.20878276       7.76888712       0.00000000
C        7.35305105       9.12326947       0.00000000
C        8.50217772       9.81428168       0.00000000
C        8.72439008      11.17899639       0.00000000
C        7.47580156      11.76971520       0.00000000
C        7.76354414      13.12596221       0.00000000
C        8.94738485      13.80645370       0.00000000
C        9.22842328      15.12192460       0.00000000
C        8.03074932      15.76706026       0.00000000
C        8.21047210      17.08821422       0.00000000
C        9.42601432      17.74806376       0.00000000
C        9.54778265      19.10148644       0.00000000
C        8.40060082      19.74167092       0.00000000
C        8.28501632      20.85130626       0.00000000
C        9.39888726      21.44716265       0.00000000
C        9.44828858       0.80918670       0.00000000
C       10.73232241       1.57925478       0.00000000
C       10.74761540       2.90124218       0.00000000
C        9.56803068       3.66932120       0.00000000
C        9.51507689       5.06737830       0.00000000
C       10.70051512       5.76781843       0.00000000
C       10.85149766       7.11712017       0.00000000
C        9.67344038       7.79250033       0.00000000
C        9.73239916       9.16688965       0.00000000
C       10.96214904       9.78792586       0.00000000
C       11.14257103      11.12012688       0.00000000
C        9.93368760      11.80628722       0.00000000
C       10.15616612      13.14716087       0.00000000
C       11.38633961      13.76982883       0.00000000
C       11.66167029      15.09234580       0.00000000
C       10.44593471      15.75318840       0.00000000
C       10.68979120      17.07832068       0.00000000
C       11.88243394      17.74257100       0.00000000
C       11.77623946      18.96250310       0.00000000
C       10.76390614      19.76646836       0.00000000
C       10.62847580      20.81777992       0.00000000
C       11.64901417      21.45952623       0.00000000
C       11.90076445       0.77848711       0.00000000
C       13.23697455       1.57912296       0.00000000
C       13.16063185       2.94415925       0.00000000
C       11.97444156       3.66668207       0.00000000
C       11.94763445       5.04382313       0.00000000
C       13.16394949       5.74983292       0.00000000
C       13.29740176       7.09931447       0.00000000
C       12.05337008       7.77503280       0.00000000
C       12.15927737       9.15245552       0.00000000
C       13.37505776       9.82476241       0.00000000
C       13.66487930      11.16900036       0.00000000
C       12.35582560      11.75443931       0.00000000
C       12.59669106      13.13853905       0.00000000
C       13.78962673      13.80404785       0.00000000
C       14.02653700      15.10527147       0.00000000
C       12.86747342      15.79615858       0.00000000
C       13.09932471      17.09201047       0.00000000
C       14.33553617      17.71166026       0.00000000
C       13.31658063      19.76145815       0.00000000
C       12.20472227      19.30048643       0.00000000
C       13.04849774      20.84221527       0.00000000
C       14.15433653      21.46646005       0.00000000
C       14.37406503       0.70811686       0.00000000
C       15.64196838       1.58299342       0.00000000
C       15.62344230       2.94326251       0.00000000
C       14.41814536       3.64095422       0.00000000
C       14.37633874       5.05977243       0.00000000
C       15.58824913       5.75289597       0.00000000
C       15.76612466       7.13206264       0.00000000
C       14.49487600       7.76786573       0.00000000
C       14.66656275       9.14938930       0.00000000
C       15.81908700       9.78808466       0.00000000
C       16.05476475      11.12361644       0.00000000
C       14.83603202      11.77653545       0.00000000
C       15.01754386      13.12668973       0.00000000
C       16.21268177      13.83282363       0.00000000
C       16.56418045      15.10019168       0.00000000
C       15.33208068      15.73829554       0.00000000
C       15.58780007      17.08356303       0.00000000
C       16.78336425      17.74414965       0.00000000
C       15.63601965      19.72407555       0.00000000
C       14.43857612      19.09861673       0.00000000
C       15.47991234      20.82557375       0.00000000
C       14.10466059      22.38826996       0.00000000
C       16.80929894       0.75636504       0.00000000
C       18.06714671       1.60390213       0.00000000
C       18.03054091       2.98637547       0.00000000
C       16.82093885       3.67405053       0.00000000
C       16.80546948       5.08067982       0.00000000
C       18.01165163       5.75495301       0.00000000
C       18.19522988       7.08075556       0.00000000
C       16.98542343       7.82048081       0.00000000
C       17.06346692       9.23441043       0.00000000
C       18.28759291       9.84501693       0.00000000
C       18.39594065      11.13292788       0.00000000
C       17.23493656      11.85541932       0.00000000
C       17.40936877      13.16755939       0.00000000
C       18.64278194      13.77860613       0.00000000
C       18.90609026      15.08863465       0.00000000
C       17.72641091      15.75626172       0.00000000
C       17.99246847      17.07400822       0.00000000
C       19.13835312      17.78301751       0.00000000
C       18.08892360      19.70624783       0.00000000
C       16.82272653      19.10215224       0.00000000
C       18.01458510      20.82917764       0.00000000
C       18.84494110      21.58287933       0.00000000
C       19.17456214       0.76530674       0.00000000
C       20.36159811       1.55661447       0.00000000
C       20.33323953       2.96174070       0.00000000
C       19.24308735       3.67748255       0.00000000
C       19.20583442       5.10407273       0.00000000
C       20.38887959       5.74651085       0.00000000
C       20.52302059       7.15888783       0.00000000
C       19.34788824       7.81467911       0.00000000
C       19.47622024       9.17202478       0.00000000
C       20.63474455       9.87705009       0.00000000
C       20.74896195      11.13575988       0.00000000
C       19.60347977      11.77457427       0.00000000
C       19.83351898      13.15402910       0.00000000
C       21.06469012      13.85996508       0.00000000
C       21.38120125      14.97304051       0.00000000
C       20.17256445      15.71399706       0.00000000
C       20.31524725      17.09393404       0.00000000
C       21.52970589      17.85390018       0.00000000
C       20.49617119      19.93078453       0.00000000
C       19.31986226      19.14740626       0.00000000
C       19.86830264      21.02287151       0.00000000
C       21.54818842      23.49765255       0.00000000
