180
Lattice="22.14 0.0 0.0 0.0 21.304224933097192 0.0 0.0 0.0 12.0" Properties=species:S:1:pos:R:3 pbc="T T T"
C        0.13994280       1.39769017       0.00000000
C        0.17247561       2.90591803       0.00000000
C        1.46000538       3.62159371       0.00000000
C        1.38954454       5.04614310       0.00000000
C        0.13633017       5.71843783       0.00000000
C        0.21572707       7.21674772       0.00000000
C        1.56086601       7.88651392       0.00000000
C        1.61327199       9.29459335       0.00000000
C        0.27691691       9.94541413       0.00000000
C        0.53626406      11.41311010       0.00000000
C        1.83884163      12.07027602       0.00000000
C        2.08821156      13.46259686       0.00000000
C        0.83147759      14.11345647       0.00000000
C        1.08913553      15.44731021       0.00000000
C        2.32988394      16.19425802       0.00000000
C        2.55352375      17.54250494       0.00000000
C        1.30757393      18.44556690       0.00000000
C        0.17775137      20.54199065       0.00000000
C        2.65228491      20.79518848       0.00000000
C        1.38828306       0.55822932       0.00000000
C        2.62823595       1.45700909       0.00000000
C        2.67706526       2.82962522       0.00000000
C        3.91682462       3.64616189       0.00000000
C        3.88927676       5.07812180       0.00000000
C        2.59164071       5.76173692       0.00000000
C        2.75657095       7.15629554       0.00000000
C        4.01734421       7.90402978       0.00000000
C        4.13056147       9.31119862       0.00000000
C        2.90736660      10.05581345       0.00000000
C        3.06371082      11.39534866       0.00000000
C        4.31176684      12.07304994       0.00000000
C        4.56463997      13.46885159       0.00000000
C        3.29727379      14.14722323       0.00000000
C        3.57523916      15.47352553       0.00000000
C        4.82178493      16.21074166       0.00000000
C        5.01301095      17.54270172       0.00000000
C        3.78076472      18.28243820       0.00000000
C        3.92279344      19.63182534       0.00000000
C        5.14182983      20.78336448       0.00000000
C        3.86753437       0.56356149       0.00000000
C        5.11933720       1.48529106       0.00000000
C        5.11238305       2.90610166       0.00000000
C        6.42844776       3.62139344       0.00000000
C        6.38623497       5.05740089       0.00000000
C        5.11771382       5.77939552       0.00000000
C        5.28541292       7.17409400       0.00000000
C        6.53004734       7.92245664       0.00000000
C        6.68815495       9.30076903       0.00000000
C        5.38842623       9.99640745       0.00000000
C        5.54162520      11.33990657       0.00000000
C        6.81026215      12.04208691       0.00000000
C        7.13174399      13.46142268       0.00000000
C        5.84693042      14.14259095       0.00000000
C        6.02093347      15.49246107       0.00000000
C        7.36337337      16.19565113       0.00000000
C        7.56393932      17.52186349       0.00000000
C        6.38271487      18.24237433       0.00000000
C        6.38381036      19.65380578       0.00000000
C        7.67951345      20.79935313       0.00000000
C        6.33365624       0.61265415       0.00000000
C        7.67569846       1.46493087       0.00000000
C        7.69390455       2.85624050       0.00000000
C        8.97699497       3.64816726       0.00000000
C        8.90833217       5.07288469       0.00000000
C        7.67107717       5.78186180       0.00000000
C        7.74019307       7.21554465       0.00000000
C        9.08098825       7.92285528       0.00000000
C        9.11704409       9.30479288       0.00000000
C        7.89977845      10.03998422       0.00000000
C        8.09064068      11.41277110       0.00000000
C        9.34275749      12.06305949       0.00000000
C        9.58103868      13.47430212       0.00000000
C        8.34187935      14.19761654       0.00000000
C        8.58780660      15.50019151       0.00000000
C        9.88048259      16.15726121       0.00000000
C       10.07933701      17.50429125       0.00000000
C        8.84529086      18.24282618       0.00000000
C        8.85225760      19.61818857       0.00000000
C       10.14545746      20.77767719       0.00000000
C        8.86677815       0.59923848       0.00000000
C       10.17019603       1.44361867       0.00000000
C       10.17872762       2.78660659       0.00000000
C       11.45594184       3.63405373       0.00000000
C       11.41501106       5.03983169       0.00000000
C       10.15675405       5.80164801       0.00000000
C       10.28348487       7.18156855       0.00000000
C       11.54873593       7.90733584       0.00000000
C       11.61145666       9.30463167       0.00000000
C       10.38375535      10.01061575       0.00000000
C       10.59311749      11.36684178       0.00000000
C       11.83434674      12.04031126       0.00000000
C       12.08931789      13.47279066       0.00000000
C       10.82721669      14.13665110       0.00000000
C       11.09770072      15.45781091       0.00000000
C       12.35781760      16.22146615       0.00000000
C       12.59337989      17.54477773       0.00000000
C       11.32946016      18.24285065       0.00000000
C       11.46664631      19.62459790       0.00000000
C       12.68278351      20.78852875       0.00000000
C       11.42038068       0.58188787       0.00000000
C       12.77880275       1.48316563       0.00000000
C       12.67958855       2.85672151       0.00000000
C       13.99552330       3.61290628       0.00000000
C       13.94674381       5.05739597       0.00000000
C       12.69153249       5.79127286       0.00000000
C       12.80352577       7.17397460       0.00000000
C       14.05260099       7.89230537       0.00000000
C       14.22235133       9.31345736       0.00000000
C       12.89554735      10.01172358       0.00000000
C       13.18587784      11.42342215       0.00000000
C       14.41444198      12.06331940       0.00000000
C       14.58226529      13.44140451       0.00000000
C       13.32873332      14.16910587       0.00000000
C       13.53338728      15.47676871       0.00000000
C       14.90960234      16.15465616       0.00000000
C       15.17190549      17.52344183       0.00000000
C       13.91613032      18.21386069       0.00000000
C       13.90756350      19.61820141       0.00000000
C       15.17412053      20.59472843       0.00000000
C       13.92242777       0.37597132       0.00000000
C       15.22481276       1.48607199       0.00000000
C       15.22131162       2.83721108       0.00000000
C       16.49698679       3.66247289       0.00000000
C       16.43915232       5.07576574       0.00000000
C       15.19009687       5.79314957       0.00000000
C       15.33875582       7.20339315       0.00000000
C       16.59812733       7.92294572       0.00000000
C       16.70351004       9.35461771       0.00000000
C       15.45374494       9.97236990       0.00000000
C       15.62980174      11.39221245       0.00000000
C       16.89816395      12.11231678       0.00000000
C       17.06359587      13.47880801       0.00000000
C       15.83223718      14.16944432       0.00000000
C       16.18370649      15.47864393       0.00000000
C       17.41843309      16.17654499       0.00000000
C       16.81012703      17.94000891       0.00000000
C       16.45419265      18.26365100       0.00000000
C       16.39975223      19.64645233       0.00000000
C       17.70982228      20.80493086       0.00000000
C       16.45025155       0.59109055       0.00000000
C       17.75481129       1.52586753       0.00000000
C       17.71481843       2.88829630       0.00000000
C       18.95861949       3.64299942       0.00000000
C       18.98306073       5.11593533       0.00000000
C       17.69147996       5.80658432       0.00000000
C       17.86639765       7.16610390       0.00000000
C       19.06228014       7.92598012       0.00000000
C       19.19428476       9.30197331       0.00000000
C       17.95395073      10.05542280       0.00000000
C       18.09791621      11.35936191       0.00000000
C       19.33674848      12.07840140       0.00000000
C       19.63599733      13.40588016       0.00000000
C       18.36506374      14.13739723       0.00000000
C       18.60905493      15.47821726       0.00000000
C       20.16248060      17.08202548       0.00000000
C       18.93077373      18.21641699       0.00000000
C       17.65348573      17.52743954       0.00000000
C       18.96291384      19.62468343       0.00000000
C       20.15461758      21.12006683       0.00000000
C       18.92413210       0.60664090       0.00000000
C       20.04842822       1.42115961       0.00000000
C       20.09799624       2.90440014       0.00000000
C       21.51235625       3.88807955       0.00000000
C       20.93848173       6.12536450       0.00000000
C       20.22049446       5.86940861       0.00000000
C       20.24230447       7.13533429       0.00000000
C       20.92626630       9.04716150       0.00000000
C       20.93797580      12.76795642       0.00000000
C       20.24254638       9.97226365       0.00000000
C       20.37572572      11.37489594       0.00000000
C       21.03529726      13.81957983       0.00000000
C       21.95246340      13.91722365       0.00000000
C       20.58518881      14.13278905       0.00000000
C       20.07592317      16.02959029       0.00000000
C       21.57207078      15.79031835       0.00000000
C       20.92804947      17.15568629       0.00000000
C       20.34323697      17.77912482       0.00000000
C       20.24928181      20.26163170       0.00000000
C       20.92504760      20.53409687       0.00000000
C       21.61375597      -0.22818224       0.00000000
