180
Lattice="22.14 0.0 0.0 0.0 21.304224933097192 0.0 0.0 0.0 12.0" Properties=species:S:1:pos:R:3 pbc="T T T"
C        0.91267299       1.22952822       0.00000000
C        0.82272327       2.71857451       0.00000000
C        1.98507807       3.37624766       0.00000000
C        1.99509718       4.78733774       0.00000000
C        0.83811829       5.58159950       0.00000000
C        0.71655306       7.05861617       0.00000000
C        1.92519773       7.80112738       0.00000000
C        1.77689332       9.17887212       0.00000000
C        0.67284138       9.90742535       0.00000000
C        0.50465953      11.26308840       0.00000000
C        1.63592551      11.96987534       0.00000000
C        1.38329974      13.40149366       0.00000000
C        0.23937477      14.44937442       0.00000000
C        1.03585929      16.15575894       0.00000000
C        2.36558870      15.43719380       0.00000000
C        2.10643538      18.29041367       0.00000000
C        0.82236666      17.67759841       0.00000000
C        0.90749004      20.80687830       0.00000000
C        2.08288978      19.58713469       0.00000000
C        2.05415701       0.16616265       0.00000000
C        3.18688172       1.27999215       0.00000000
C        3.28719442       2.60858840       0.00000000
C        4.48187231       3.48468378       0.00000000
C        4.58526202       4.86486165       0.00000000
C        3.24442763       5.64473363       0.00000000
C        3.11727104       6.97946816       0.00000000
C        4.38549683       7.80894320       0.00000000
C        4.29060968       9.25002733       0.00000000
C        3.03263570       9.96726378       0.00000000
C        2.89908253      11.26904862       0.00000000
C        4.07995532      12.06043995       0.00000000
C        3.90518489      13.47077030       0.00000000
C        2.61889253      14.12365001       0.00000000
C        3.59358571      16.13487261       0.00000000
C        4.82652974      15.41689000       0.00000000
C        4.51972519      18.30081976       0.00000000
C        3.33775355      17.49146660       0.00000000
C        3.28466974      21.02785289       0.00000000
C        4.64911917      19.72258125       0.00000000
C        4.55712350       0.13935505       0.00000000
C        5.74185056       1.22919508       0.00000000
C        5.81078940       2.53879721       0.00000000
C        7.01209258       3.37301146       0.00000000
C        7.10520759       4.80802933       0.00000000
C        5.84210980       5.60694437       0.00000000
C        5.66398178       7.02414503       0.00000000
C        7.00281260       7.73158758       0.00000000
C        6.86002639       9.14209169       0.00000000
C        5.58369015       9.79786751       0.00000000
C        5.37192786      11.25676213       0.00000000
C        6.63623573      11.88457285       0.00000000
C        6.48542279      13.32272794       0.00000000
C        5.20156511      14.10630742       0.00000000
C        6.07461647      16.19220823       0.00000000
C        6.37988229      15.99775496       0.00000000
C        7.13349163      18.25519138       0.00000000
C        5.87593317      17.50505817       0.00000000
C        5.91093245      21.00499618       0.00000000
C        7.12562410      19.64992152       0.00000000
C        7.12041902       0.11722189       0.00000000
C        8.34254500       1.20815714       0.00000000
C        8.40322078       2.59831573       0.00000000
C        9.60082517       3.39241005       0.00000000
C        9.73981140       4.73836035       0.00000000
C        8.37155691       5.56108128       0.00000000
C        8.27072653       6.92964061       0.00000000
C        9.48745145       7.77783214       0.00000000
C        9.49734990       9.18001388       0.00000000
C        8.16168546       9.85542698       0.00000000
C        7.89596517      11.29708552       0.00000000
C        9.25326817      11.96999284       0.00000000
C        8.97837231      13.42740711       0.00000000
C        7.71970281      14.08858377       0.00000000
C        7.57158987      15.39819701       0.00000000
C        8.76364647      16.16042919       0.00000000
C        9.76011245      18.29082884       0.00000000
C        8.49576728      17.53695375       0.00000000
C        8.42099147      20.99630737       0.00000000
C        9.78269277      19.64341625       0.00000000
C        9.70008954       0.15389393       0.00000000
C       10.89852128       1.18936361       0.00000000
C       10.94051374       2.51721993       0.00000000
C       12.14076470       3.39519629       0.00000000
C       12.26324647       4.80499584       0.00000000
C       10.93547399       5.64244485       0.00000000
C       10.83561589       7.02541729       0.00000000
C       12.04059496       7.78821516       0.00000000
C       12.01985930       9.16437029       0.00000000
C       10.76262630       9.86858134       0.00000000
C       10.49663022      11.25365730       0.00000000
C       11.80707388      11.95946776       0.00000000
C       11.55616377      13.42467381       0.00000000
C       10.28363169      14.09195276       0.00000000
C       10.01548079      15.40695383       0.00000000
C       11.23636576      16.14632092       0.00000000
C       11.41219118      17.63292874       0.00000000
C       10.95353917      17.44014429       0.00000000
C       10.99886439      20.98624913       0.00000000
C       12.19604911      19.59776008       0.00000000
C       12.27945411       0.17109803       0.00000000
C       13.41707890       1.17295954       0.00000000
C       13.47051204       2.55559466       0.00000000
C       14.72386592       3.38324149       0.00000000
C       14.78909409       4.79306191       0.00000000
C       13.45465603       5.62790858       0.00000000
C       13.42428190       7.04227935       0.00000000
C       14.66255296       7.76790064       0.00000000
C       14.52651927       9.11717868       0.00000000
C       13.27429912       9.88843966       0.00000000
C       13.08906722      11.26674801       0.00000000
C       14.39513591      11.93233241       0.00000000
C       13.98988952      13.38185157       0.00000000
C       12.80918837      14.22931375       0.00000000
C       12.56353183      15.52011269       0.00000000
C       13.85695831      16.19783931       0.00000000
C       13.59469851      17.51448805       0.00000000
C       12.35334174      18.32429683       0.00000000
C       13.40904485      20.43219342       0.00000000
C       13.69627256      21.63440986       0.00000000
C       14.87598080       0.18272649       0.00000000
C       16.03869161       1.24796438       0.00000000
C       16.14323756       2.68824188       0.00000000
C       17.33987809       3.49889578       0.00000000
C       17.40679547       4.89033392       0.00000000
C       16.04997954       5.55765765       0.00000000
C       15.95215034       6.94221566       0.00000000
C       17.19838290       7.78140731       0.00000000
C       17.11974359       9.21373399       0.00000000
C       15.77788597       9.85961559       0.00000000
C       15.66469268      11.21595978       0.00000000
C       16.91436706      11.97378656       0.00000000
C       16.66375649      13.42142650       0.00000000
C       15.33070825      14.05826790       0.00000000
C       15.16846032      15.43706990       0.00000000
C       16.41113586      16.18849334       0.00000000
C       16.22653190      17.54011872       0.00000000
C       14.78614123      18.30785511       0.00000000
C       15.00338616      19.72462847       0.00000000
C       16.13513197      21.01494434       0.00000000
C       17.37844643       0.11266639       0.00000000
C       18.58422485       1.18532524       0.00000000
C       18.58399112       2.53256169       0.00000000
C       19.79476383       3.46082351       0.00000000
C       19.91726276       4.87218853       0.00000000
C       18.65758035       5.59980488       0.00000000
C       18.53685964       6.98604247       0.00000000
C       19.73345023       7.76573657       0.00000000
C       19.66286342       9.13106589       0.00000000
C       18.36630201       9.97767918       0.00000000
C       18.18563197      11.35116935       0.00000000
C       19.42611672      12.01714967       0.00000000
C       19.20701335      13.40730271       0.00000000
C       17.95194332      14.11029405       0.00000000
C       17.65949029      15.42430630       0.00000000
C       18.93980794      16.21231929       0.00000000
C       18.74086551      17.50376925       0.00000000
C       17.49851472      18.31020356       0.00000000
C       17.43112612      19.63552276       0.00000000
C       18.62865669      21.02125853       0.00000000
C       19.89014644       0.13363239       0.00000000
C       21.12336443       1.19334170       0.00000000
C       21.08422683       2.57418853       0.00000000
C       22.17917928       3.38856167       0.00000000
C       22.23794649       4.59186946       0.00000000
C       21.13388895       5.62006513       0.00000000
C       20.99443428       6.95851650       0.00000000
C       21.99919012       7.78734783       0.00000000
C       22.01925183       9.13040608       0.00000000
C       20.88883102       9.93712253       0.00000000
C       20.62297705      11.31034521       0.00000000
C       21.79700644      11.99642602       0.00000000
C       21.72126986      13.51696065       0.00000000
C       20.43941950      14.17683931       0.00000000
C       20.17649364      15.43330789       0.00000000
C       21.56392391      16.04056780       0.00000000
C       21.41162760      17.65625367       0.00000000
C       20.00064917      18.27882733       0.00000000
C       19.87093992      19.61762605       0.00000000
C       21.24127651      20.73983785       0.00000000
C       22.24031960       0.06084254       0.00000000
