180
Lattice="22.14 0.0 0.0 0.0 21.304224933097192 0.0 0.0 0.0 12.0" Properties=species:S:1:pos:R:3 pbc="T T T"
C       -0.13713132       0.74450718       0.00000000
C        0.34979735       2.68952462       0.00000000
C        1.65697762       4.02148456       0.00000000
C        0.65687787       5.64127598       0.00000000
C       -0.92308066       4.47481678       0.00000000
C        0.08748780       7.34514513       0.00000000
C        1.87675484       7.63518906       0.00000000
C       -0.18521592       9.19339196       0.00000000
C        0.67475736      10.69516001       0.00000000
C       -0.02653307      11.99195692       0.00000000
C        2.18220234      11.98115534       0.00000000
C       -0.15684277      13.75897615       0.00000000
C        1.27986952      15.06377781       0.00000000
C       -0.02781819      15.84278036       0.00000000
C        2.50811081      15.85995958       0.00000000
C        0.83871383      17.35304280       0.00000000
C       -0.54836606      18.18936399       0.00000000
C        0.30109902      20.13829208       0.00000000
C        1.67733089      19.01011617       0.00000000
C        1.60611397       0.70467959       0.00000000
C        3.07621037       1.49228236       0.00000000
C        2.63053127       2.82884052       0.00000000
C        4.05136740       3.54822119       0.00000000
C        4.04808994       5.14002986       0.00000000
C        2.51576442       5.56296102       0.00000000
C        3.15908986       7.02289863       0.00000000
C        4.38340202       7.90106654       0.00000000
C        3.76169654       9.37641871       0.00000000
C        1.85416613       9.26391871       0.00000000
C        3.16405165      10.80122571       0.00000000
C        4.44383415      11.86977283       0.00000000
C        3.20454564      13.68080206       0.00000000
C        1.52476269      13.61672941       0.00000000
C        3.82123762      15.19148325       0.00000000
C        4.81012543      17.17110537       0.00000000
C        4.04772113      18.87763728       0.00000000
C        2.77690041      17.37694897       0.00000000
C        2.83618216      20.34391793       0.00000000
C        5.21127076      20.31173138       0.00000000
C        4.02507233       0.45035949       0.00000000
C        5.30060679       1.51218155       0.00000000
C        5.23045726       3.00245647       0.00000000
C        6.77265264       3.47492116       0.00000000
C        6.45019339       5.07360953       0.00000000
C        5.32016897       5.72538011       0.00000000
C        5.38637170       6.95776364       0.00000000
C        6.60996633       7.76786580       0.00000000
C        6.75452937       9.18189827       0.00000000
C        5.33278908       9.59718600       0.00000000
C        5.76170321      11.07503149       0.00000000
C        7.05640504      12.20199215       0.00000000
C        6.30843281      13.85305193       0.00000000
C        4.72298053      13.38334852       0.00000000
C        5.63157395      15.49626215       0.00000000
C        7.46313307      15.77182343       0.00000000
C        7.67827759      17.25387479       0.00000000
C        6.41309303      17.80911821       0.00000000
C        6.55354634      19.25596184       0.00000000
C        7.76882450      20.36987667       0.00000000
C        6.50656487       0.55708920       0.00000000
C        7.73057037       1.73008167       0.00000000
C        8.44458426       3.23898764       0.00000000
C        9.92532744       3.05966261       0.00000000
C        9.07059573       4.75351262       0.00000000
C        7.88161618       5.69273006       0.00000000
C        7.77304505       7.12719280       0.00000000
C        9.12210030       7.82518891       0.00000000
C        9.20944892       9.16286727       0.00000000
C        8.06371157       9.74747569       0.00000000
C        7.96581668      11.11572303       0.00000000
C        9.40293496      11.76476334       0.00000000
C        9.62293778      13.31435537       0.00000000
C        8.10817353      13.62395051       0.00000000
C        8.73298878      15.05138062       0.00000000
C       10.03276465      15.91131054       0.00000000
C       10.07215575      17.20111643       0.00000000
C        9.06540141      17.84115185       0.00000000
C        8.88763433      19.18417732       0.00000000
C       10.17555441      20.28791648       0.00000000
C        8.94332461       0.61532085       0.00000000
C       11.50656287       0.40189532       0.00000000
C       10.42773310       1.54582993       0.00000000
C       11.44915474       3.39142625       0.00000000
C       11.40042990       5.02883764       0.00000000
C       10.17639699       5.84077614       0.00000000
C       10.22067347       7.17636396       0.00000000
C       11.56997275       7.79262168       0.00000000
C       11.62309621       9.26668447       0.00000000
C       10.40650551       9.92124241       0.00000000
C       10.69238177      11.26410385       0.00000000
C       12.07831612      13.21182003       0.00000000
C       11.97171960      13.27965780       0.00000000
C       10.98208738      13.88671143       0.00000000
C       11.07639254      15.11506075       0.00000000
C       12.40486079      15.82769833       0.00000000
C       12.57996079      17.21146481       0.00000000
C       11.32210367      17.74439015       0.00000000
C       11.48001644      19.19432680       0.00000000
C       12.67048451      20.43338417       0.00000000
C       12.64124379       1.41566103       0.00000000
C       14.20969898       1.02731199       0.00000000
C       12.88853466       2.85952220       0.00000000
C       14.88740183       2.88464889       0.00000000
C       13.99455123       4.18129779       0.00000000
C       12.99523143       5.58178346       0.00000000
C       12.73483120       6.99028937       0.00000000
C       14.08225648       7.97780567       0.00000000
C       13.21415581       9.63151046       0.00000000
C       12.94991022      11.02526613       0.00000000
C       11.97009930      11.93670585       0.00000000
C       14.25292075      11.87547017       0.00000000
C       14.42564772      13.27966646       0.00000000
C       13.23234776      13.83589744       0.00000000
C       13.48253180      15.14755730       0.00000000
C       14.76924334      15.94805062       0.00000000
C       15.10860151      17.16851706       0.00000000
C       13.93068630      17.80735233       0.00000000
C       13.63499658      19.26250406       0.00000000
C       15.16589688      20.72270329       0.00000000
C       13.82140226       0.22684836       0.00000000
C       15.95388393      -0.22353353       0.00000000
C       15.41762625       1.43475571       0.00000000
C       16.38394886       3.52237843       0.00000000
C       16.37194154       5.08270886       0.00000000
C       14.90854094       5.58213127       0.00000000
C       15.25963843       6.99422115       0.00000000
C       16.56671103       7.74632688       0.00000000
C       16.43141064       9.26846030       0.00000000
C       14.90119972       9.59829438       0.00000000
C       15.62365924      11.09214536       0.00000000
C       16.79145674      12.35917426       0.00000000
C       16.13185980      13.80069745       0.00000000
C       14.57411474      13.36256637       0.00000000
C       15.78192042      15.16399889       0.00000000
C       17.54681669      17.21645505       0.00000000
C       16.40803082      17.89227396       0.00000000
C       16.32525679      19.38347226       0.00000000
C       14.95130201      19.63166994       0.00000000
C       17.53683191      20.98461468       0.00000000
C       16.76180746       0.80291711       0.00000000
C       18.00973085       1.55123621       0.00000000
C       17.44931015       2.72393525       0.00000000
C       18.70120701       3.58131709       0.00000000
C       18.78642435       5.07245101       0.00000000
C       17.66932630       5.81077998       0.00000000
C       17.73531514       7.10539330       0.00000000
C       18.97992334       7.83661175       0.00000000
C       19.38665290       9.21269444       0.00000000
C       17.93367300       9.76844144       0.00000000
C       17.76473430      11.26677529       0.00000000
C       19.25046213      13.27914418       0.00000000
C       17.92154534      13.72607979       0.00000000
C       18.43745990      15.10279057       0.00000000
C       17.30013240      15.86554721       0.00000000
C       19.72718469      17.01012328       0.00000000
C       18.79625871      17.91570239       0.00000000
C       18.81243369      19.30374877       0.00000000
C       17.65899883      19.81294345       0.00000000
C       20.17206385      19.58969822       0.00000000
C       18.67423036       0.32840574       0.00000000
C       19.90372194       1.13149716       0.00000000
C       19.90691822       2.95660446       0.00000000
C       21.56695317       3.88461202       0.00000000
C       21.91449820       4.85557730       0.00000000
C       20.02625788       5.41963296       0.00000000
C       20.03613837       7.04772735       0.00000000
C       21.02259194       8.10275705       0.00000000
C       21.64383623       9.35437423       0.00000000
C       20.45403129      10.34443262       0.00000000
C       19.51909713      11.71439279       0.00000000
C       21.14698858      11.93892524       0.00000000
C       21.80427482      13.50265217       0.00000000
C       20.45047074      14.08033109       0.00000000
C       19.86272128      15.72639008       0.00000000
C       20.80909833      16.16299370       0.00000000
C       21.37779828      17.64440001       0.00000000
C       20.38914342      17.75750726       0.00000000
C       19.82452088      20.68765279       0.00000000
C       21.91487360      20.35356035       0.00000000
C       21.87139539       0.80185889       0.00000000
