180
Lattice="22.14 0.0 0.0 0.0 21.304224933097192 0.0 0.0 0.0 12.0" Properties=species:S:1:pos:R:3 pbc="T T T"
C        0.35606059       0.32007319       0.00000000
C        0.47709508       1.64330720       0.00000000
C        1.56746581       2.59630833       0.00000000
C        1.58886950       3.82899379       0.00000000
C        0.39543562       4.44593077       0.00000000
C        0.50659151       5.95135832       0.00000000
C        1.83732254       6.76030333       0.00000000
C        1.91704034       7.93110085       0.00000000
C        0.90137229       8.75858142       0.00000000
C        0.81138990      10.12210192       0.00000000
C        1.81414492      11.15645998       0.00000000
C        1.74469836      12.43262021       0.00000000
C        0.60808458      13.60644377       0.00000000
C       -0.18024545      14.99534552       0.00000000
C        1.07093042      16.03456470       0.00000000
C        1.72749162      15.28750908       0.00000000
C        0.85097251      17.36363891       0.00000000
C       -0.18077104      18.47518054       0.00000000
C        1.82710295      18.70764041       0.00000000
C        2.06074786      19.92251892       0.00000000
C        2.65211730       0.41091433       0.00000000
C        2.75973733       1.73820069       0.00000000
C        4.03456244       2.52416487       0.00000000
C        4.08316551       3.83799459       0.00000000
C        2.82158454       4.53328933       0.00000000
C        2.97629526       5.86085819       0.00000000
C        4.21172576       6.71792201       0.00000000
C        4.23778189       7.95587885       0.00000000
C        3.10563930       8.67534937       0.00000000
C        3.10331272      10.05055160       0.00000000
C        4.32264397      11.10849390       0.00000000
C        4.32923693      12.53033001       0.00000000
C        3.25120277      13.23700859       0.00000000
C        2.60561398      14.40849460       0.00000000
C        4.39096221      15.45028995       0.00000000
C        3.15102690      15.96653372       0.00000000
C        3.38114836      17.21854781       0.00000000
C        2.65730228      17.86285456       0.00000000
C        4.25111351      19.72196205       0.00000000
C        3.33785231      21.48232233       0.00000000
C        5.17231204       0.31983055       0.00000000
C        5.18662489       1.72712738       0.00000000
C        6.46281678       2.55257606       0.00000000
C        6.69793023       3.89533336       0.00000000
C        5.44227165       4.68040219       0.00000000
C        5.38174490       5.99181250       0.00000000
C        6.76747061       6.62069016       0.00000000
C        6.91572032       7.97865161       0.00000000
C        5.57987147       8.84690230       0.00000000
C        5.45698437      10.17992554       0.00000000
C        6.74341763      10.89966490       0.00000000
C        6.92985693      12.10445586       0.00000000
C        5.76757399      13.13478644       0.00000000
C        4.91377109      14.32870681       0.00000000
C        6.89973735      15.27465996       0.00000000
C        5.89267163      16.05112626       0.00000000
C        5.59218269      17.40596662       0.00000000
C        4.36581731      18.38050699       0.00000000
C        6.90285369      19.74184872       0.00000000
C        5.84239989      20.44102069       0.00000000
C        7.70089153       0.92428435       0.00000000
C        7.73674160       2.09824902       0.00000000
C        8.95923832       2.67274807       0.00000000
C        9.08778122       3.90618074       0.00000000
C        7.84765076       4.79644028       0.00000000
C        7.99480548       5.96476623       0.00000000
C        9.22614183       6.70658961       0.00000000
C        9.56648397       8.09356605       0.00000000
C        8.26191767       8.83297628       0.00000000
C        8.04896153      10.10209477       0.00000000
C        9.27292940      11.09839524       0.00000000
C        9.25675611      12.36762403       0.00000000
C        8.17833736      13.21070806       0.00000000
C        7.81179068      14.63855499       0.00000000
C        9.87821024      15.24430574       0.00000000
C        8.52885874      16.03562112       0.00000000
C        8.18520063      17.31372742       0.00000000
C        6.85158724      18.36582125       0.00000000
C        9.37381204      18.35447262       0.00000000
C        9.53095271      19.72344511       0.00000000
C       10.35376560       0.67359787       0.00000000
C       10.29885817       1.79598030       0.00000000
C       11.51271770       2.65754096       0.00000000
C       11.62168491       3.94826554       0.00000000
C       10.40359417       4.58918503       0.00000000
C       10.54784202       6.01516446       0.00000000
C       11.94117727       6.74963088       0.00000000
C       12.06575550       7.95561929       0.00000000
C       10.88554528       8.81147275       0.00000000
C       10.66263845      10.26044228       0.00000000
C       11.91909926      11.17153874       0.00000000
C       11.88980518      12.44670292       0.00000000
C       10.89268622      13.15304422       0.00000000
C       10.03820390      13.98359488       0.00000000
C       12.35740690      15.27118833       0.00000000
C       11.37516303      15.79744208       0.00000000
C       10.76240178      16.60027077       0.00000000
C       10.66822267      17.60174742       0.00000000
C       11.95521624      19.69269698       0.00000000
C       10.72017086      21.21968629       0.00000000
C       13.00966706       0.45672336       0.00000000
C       12.86111555       1.69999805       0.00000000
C       14.15982192       2.60571059       0.00000000
C       14.17085388       3.97528124       0.00000000
C       12.81713501       4.65145374       0.00000000
C       13.15150722       5.90784920       0.00000000
C       14.31350744       6.82542580       0.00000000
C       14.61257593       8.16625716       0.00000000
C       13.37582254       8.74905759       0.00000000
C       13.04044513      10.07388658       0.00000000
C       14.29621010      10.98080047       0.00000000
C       14.36643186      12.26588278       0.00000000
C       13.13843267      13.32388513       0.00000000
C       12.54493743      14.31964599       0.00000000
C       14.81941054      15.53462432       0.00000000
C       13.56311890      16.03040130       0.00000000
C       13.31324952      17.48250262       0.00000000
C       12.00881194      18.32490271       0.00000000
C       14.37255347      19.70510067       0.00000000
C       13.34825981      21.08410048       0.00000000
C       15.41617009       0.45707317       0.00000000
C       15.45472795       1.73545488       0.00000000
C       16.61984578       2.80388515       0.00000000
C       16.53201722       3.94592088       0.00000000
C       15.44732093       4.74982905       0.00000000
C       15.65719661       5.96214991       0.00000000
C       16.67156080       6.85382568       0.00000000
C       16.92759903       8.16175562       0.00000000
C       15.67777700       9.10867649       0.00000000
C       15.69862467      10.39680091       0.00000000
C       16.88865204      11.10785015       0.00000000
C       16.81121249      12.40896120       0.00000000
C       15.64040711      13.24648543       0.00000000
C       15.14951533      14.46672412       0.00000000
C       17.12481671      15.44342904       0.00000000
C       16.10278703      16.28277757       0.00000000
C       15.69860388      17.66613049       0.00000000
C       14.48449156      18.54493841       0.00000000
C       17.15158029      19.70424625       0.00000000
C       15.64081401      20.35081816       0.00000000
C       17.84421222       0.31906346       0.00000000
C       17.90804164       1.75149788       0.00000000
C       19.21730492       2.63263637       0.00000000
C       19.09057981       3.89555056       0.00000000
C       17.84896854       4.72637356       0.00000000
C       18.08770714       6.26979305       0.00000000
C       19.28313428       6.93464661       0.00000000
C       19.70741272       8.18630083       0.00000000
C       18.33634513       8.78801533       0.00000000
C       18.15248281      10.18839941       0.00000000
C       19.64327311      11.17430530       0.00000000
C       19.32359982      12.51006622       0.00000000
C       18.29743605      13.48786548       0.00000000
C       17.53399636      14.68981058       0.00000000
C       19.90940254      15.40385965       0.00000000
C       18.62540405      16.25900781       0.00000000
C       18.16202038      17.64482854       0.00000000
C       16.83918663      18.61964522       0.00000000
C       19.57705385      19.57905867       0.00000000
C       18.39098226      20.66670911       0.00000000
C       20.53771637       0.73529337       0.00000000
C       20.45513160       1.87645961       0.00000000
C       21.69790542       2.63117542       0.00000000
C       21.54641764       3.71493048       0.00000000
C       20.45502723       4.64925072       0.00000000
C       20.53243401       6.09322489       0.00000000
C       21.66714249       6.80438171       0.00000000
C       21.70882185       7.98601035       0.00000000
C       20.78230347       8.94034275       0.00000000
C       20.77890529      10.29270502       0.00000000
C       21.67751707      11.50949138       0.00000000
C       21.66356012      12.56767308       0.00000000
C       20.78437274      13.33298694       0.00000000
C       20.22287175      14.19903485       0.00000000
C       21.72044262      14.42025875       0.00000000
C       21.67786593      15.69689981       0.00000000
C       20.79803007      16.67882351       0.00000000
C       19.50005296      18.40835263       0.00000000
C       21.67374554      18.05534297       0.00000000
C       21.54637786      19.95084031       0.00000000
