180
Lattice="21.92079207920792 0.0 0.0 0.0 21.093292012967517 0.0 0.0 0.0 11.881188118811881" Properties=species:S:1:pos:R:3 pbc="T T T"
C        2.35334435      -0.58339412       0.00000000
C        2.24638114       1.45972101       0.00000000
C        1.98775097       2.54693628       0.00000000
C        1.56835807       3.32143578       0.00000000
C        0.64289601       4.92511776       0.00000000
C        0.53378966       5.39316003       0.00000000
C        3.47857486       5.77438106       0.00000000
C        3.18570144       5.95434231       0.00000000
C       -0.18998428       7.86578250       0.00000000
C        0.90767033       7.79430534       0.00000000
C        1.11575443       9.62860354       0.00000000
C        1.75393718      12.00967005       0.00000000
C       -0.15589614      11.88091502       0.00000000
C        0.00298664      14.58870322       0.00000000
C        1.42682186      15.15866250       0.00000000
C        1.01667891      16.98935830       0.00000000
C       -0.53723987      19.09481023       0.00000000
C       -1.13567741      21.04915229       0.00000000
C       -1.13128040      20.89436316       0.00000000
C       -0.08194241      24.06461992       0.00000000
C        3.34774794       0.57009783       0.00000000
C        4.71316560       1.42123244       0.00000000
C        5.12694116       0.72832038       0.00000000
C        4.65918363       2.20178327       0.00000000
C        3.81543601       3.30892652       0.00000000
C        3.68023435       4.60727650       0.00000000
C        4.13217592       4.77777483       0.00000000
C        4.83817307       7.00428765       0.00000000
C        3.29667960       7.46903859       0.00000000
C        3.50790256       8.14380488       0.00000000
C        4.17865765       8.95115098       0.00000000
C        4.11037214      10.77735335       0.00000000
C        2.83651701      12.54500903       0.00000000
C        3.53490185      14.10740242       0.00000000
C        4.05069384      15.23820457       0.00000000
C        4.47836869      17.68069076       0.00000000
C        2.56903569      19.09997036       0.00000000
C        2.40041047      19.24848141       0.00000000
C        4.05920308      20.42740311       0.00000000
C        2.65237534      24.07373840       0.00000000
C        6.13028579      -0.55031247       0.00000000
C        5.79282746       0.39942633       0.00000000
C        5.83503684       0.57378723       0.00000000
C        5.06266682       2.68695979       0.00000000
C        5.58839494       3.10111744       0.00000000
C        5.66842042       4.07794034       0.00000000
C        6.46214866       5.85163367       0.00000000
C        6.42393545       7.26588482       0.00000000
C        5.61468365       6.94091675       0.00000000
C        4.52504427       9.52209874       0.00000000
C        6.30158871       9.71493457       0.00000000
C        6.07245129      11.81619216       0.00000000
C        4.60235292      12.88326251       0.00000000
C        4.89009059      14.73874960       0.00000000
C        5.92816847      14.40635562       0.00000000
C        7.06621380      16.29228462       0.00000000
C        5.77639277      17.98564764       0.00000000
C        4.17112112      18.22194395       0.00000000
C        6.68321585      19.59263394       0.00000000
C        5.80729823      21.79692665       0.00000000
C        6.64952616       0.37056187       0.00000000
C        6.12447060       1.09849282       0.00000000
C        5.66873932       2.02815228       0.00000000
C        7.51260122       2.51721358       0.00000000
C        6.22857904       3.62283263       0.00000000
C        5.97995112       4.50971900       0.00000000
C        6.82982979       5.10251586       0.00000000
C        6.99174670       7.01229184       0.00000000
C        6.79485150       7.68267185       0.00000000
C        7.40958548       8.79363915       0.00000000
C        8.17575642       9.97857306       0.00000000
C        8.47758842      11.16726669       0.00000000
C        7.17580236      12.94261117       0.00000000
C        7.38853941      14.59798923       0.00000000
C        8.29735660      15.01340059       0.00000000
C        7.44888959      15.19199320       0.00000000
C        7.09575673      16.34690190       0.00000000
C        7.34825993      18.53643210       0.00000000
C        7.83726019      19.08903697       0.00000000
C        8.36665496      23.18479048       0.00000000
C        8.87134055       0.05167506       0.00000000
C        8.33797900       1.80476687       0.00000000
C        8.64153277       2.57288191       0.00000000
C        8.79459325       2.87574046       0.00000000
C        8.67954062       3.27710496       0.00000000
C        7.94125950       4.56590811       0.00000000
C        8.58966888       5.55362220       0.00000000
C        9.15312818       6.71484220       0.00000000
C        8.71989518       7.12292919       0.00000000
C        8.54191408       8.75279135       0.00000000
C        9.79315013      10.09348231       0.00000000
C        9.16260759      11.62463571       0.00000000
C        9.11046231      13.77065829       0.00000000
C        9.88545082      14.59406110       0.00000000
C        9.71050214      14.95977407       0.00000000
C       10.94348955      17.65056331       0.00000000
C        9.80603032      18.11423882       0.00000000
C        8.36606332      18.14326033       0.00000000
C        9.30068146      19.59107195       0.00000000
C        9.18509910      20.54099787       0.00000000
C       10.94751185      -0.40197526       0.00000000
C       10.91899235       2.09547933       0.00000000
C       11.69039377       2.86304756       0.00000000
C       11.53728237       3.38673940       0.00000000
C       10.28248711       3.73700405       0.00000000
C       10.67656657       5.26406483       0.00000000
C       11.77476446       6.37057962       0.00000000
C       11.57065163       8.20503333       0.00000000
C       11.03536496       7.40564924       0.00000000
C       10.89268352       9.66744402       0.00000000
C       11.90798082      11.36950244       0.00000000
C       11.87733653      13.40389294       0.00000000
C       10.57330350      13.34073836       0.00000000
C       11.16074384      13.98010439       0.00000000
C       14.14821673      16.43231399       0.00000000
C       13.16474105      16.56438314       0.00000000
C       11.69804330      16.96864064       0.00000000
C       11.22796470      18.53071508       0.00000000
C       12.38629352      18.48163391       0.00000000
C       12.43178391      19.86059863       0.00000000
C       13.48457515      -0.59598847       0.00000000
C       13.20964467       2.12743890       0.00000000
C       14.47704511       3.23889294       0.00000000
C       13.74314936       5.03406475       0.00000000
C       13.05749046       3.76143810       0.00000000
C       13.33679512       6.47144256       0.00000000
C       14.40076197       7.65559607       0.00000000
C       14.40893878       9.22670958       0.00000000
C       13.07990815       9.38964132       0.00000000
C       11.78856859      10.66130969       0.00000000
C       13.77007090      13.38617890       0.00000000
C       14.31164669      12.86708213       0.00000000
C       13.80209169      13.13336811       0.00000000
C       15.90783303      15.72082674       0.00000000
C       17.21406090      15.92299955       0.00000000
C       14.26885983      15.08539268       0.00000000
C       13.60803675      16.63187362       0.00000000
C       13.72062907      18.70628577       0.00000000
C       14.57812390      18.51128783       0.00000000
C       15.05274808      19.56640489       0.00000000
C       16.63878294      -0.58423756       0.00000000
C       16.06157455       3.99985718       0.00000000
C       18.40677795       3.22712089       0.00000000
C       17.19880855       4.35763513       0.00000000
C       14.82955493       4.76347321       0.00000000
C       15.07889512       7.12606132       0.00000000
C       17.77243009       8.17824765       0.00000000
C       17.59984816       9.58192609       0.00000000
C       14.83114999       9.96578159       0.00000000
C       16.42531699      11.63957293       0.00000000
C       19.20480134      11.76928699       0.00000000
C       19.63079544      13.07939828       0.00000000
C       17.17672151      13.28200317       0.00000000
C       19.14121647      15.85643260       0.00000000
C       19.91863322      15.65830296       0.00000000
C       19.63412788      15.83721996       0.00000000
C       18.28873346      16.57637101       0.00000000
C       17.58976246      17.47896648       0.00000000
C       19.91545189      17.91951261       0.00000000
C       20.74169727      17.97796842       0.00000000
C       21.76918730      -0.59455281       0.00000000
C       19.65101300      -0.02086494       0.00000000
C       22.90642639       2.70784137       0.00000000
C       22.15413469       5.52922039       0.00000000
C       20.06910114       5.13115999       0.00000000
C       17.98139750       7.47518493       0.00000000
C       21.20098930       8.28887172       0.00000000
C       22.73610370       9.97062792       0.00000000
C       20.74836737       9.89281989       0.00000000
C       21.50889902      12.91804603       0.00000000
C       23.42617383      12.07851239       0.00000000
C       22.62038614      13.36597292       0.00000000
C       21.04562997      13.98812449       0.00000000
C       20.80431288      15.76467385       0.00000000
C       21.96043164      16.10589695       0.00000000
C       23.51999637      16.78299720       0.00000000
C       21.64990487      16.87590156       0.00000000
C       21.94616927      17.60547679       0.00000000
C       24.02748143      17.12561576       0.00000000
C       23.47889151      18.47589730       0.00000000
