180
Lattice="22.14 0.0 0.0 0.0 21.304224933097192 0.0 0.0 0.0 12.0" Properties=species:S:1:pos:R:3 pbc="T T T"
C        1.63585962       0.22414559       0.00000000
C        1.45208092       1.65107422       0.00000000
C        2.63990090       2.33112076       0.00000000
C        2.69688335       3.57409719       0.00000000
C        1.61471117       4.19593485       0.00000000
C        1.62645315       5.61697750       0.00000000
C        2.91242399       6.42645598       0.00000000
C        3.03397649       7.66848162       0.00000000
C        1.84289282       8.28544412       0.00000000
C        1.80794549       9.77666079       0.00000000
C        2.97349843      10.53752760       0.00000000
C        2.81389232      11.83706062       0.00000000
C        1.64494009      12.72501968       0.00000000
C        1.02494283      14.36182379       0.00000000
C        2.13787665      15.43135810       0.00000000
C        1.75928304      16.96724888       0.00000000
C        0.58068249      17.98416864       0.00000000
C        0.24826786      19.11901648       0.00000000
C        1.72137270      19.55349555       0.00000000
C        1.84910974      21.05602283       0.00000000
C        3.84279056       0.32310471       0.00000000
C        3.67931331       1.59044674       0.00000000
C        4.67825122       2.31977192       0.00000000
C        4.96085651       3.48396438       0.00000000
C        3.90364272       4.07624595       0.00000000
C        3.78112782       5.34317290       0.00000000
C        4.85459213       6.34512924       0.00000000
C        5.27187129       7.52277383       0.00000000
C        4.17776202       8.25832686       0.00000000
C        3.92454532       9.58722078       0.00000000
C        5.08717111      10.43820570       0.00000000
C        4.98542098      11.84792372       0.00000000
C        3.83607944      12.80618394       0.00000000
C        3.30591104      14.35474139       0.00000000
C        4.36476307      15.40001140       0.00000000
C        4.00144003      16.81281635       0.00000000
C        2.93800190      17.58029038       0.00000000
C        2.85160921      18.76181494       0.00000000
C        4.10155154      19.60608563       0.00000000
C        4.18252787      21.06900161       0.00000000
C        6.26115173       0.39744738       0.00000000
C        6.03672683       1.77400422       0.00000000
C        7.41610040       2.28758732       0.00000000
C        7.32383238       3.53805743       0.00000000
C        6.13691737       4.39244714       0.00000000
C        6.23872612       5.84175447       0.00000000
C        7.61872035       6.49936665       0.00000000
C        7.74732698       7.78135797       0.00000000
C        6.45595195       8.24510856       0.00000000
C        6.46293025       9.62145520       0.00000000
C        7.77957747      10.50533000       0.00000000
C        7.55810634      11.98728530       0.00000000
C        6.16702772      12.76751928       0.00000000
C        5.69454267      14.39749254       0.00000000
C        6.81929921      15.43686091       0.00000000
C        6.44241097      16.99736735       0.00000000
C        5.12615371      17.62250757       0.00000000
C        5.26675074      18.86608492       0.00000000
C        6.55097789      19.57546920       0.00000000
C        6.52702854      20.95664026       0.00000000
C        8.66543328       0.21691108       0.00000000
C        8.66312593       1.64661112       0.00000000
C        9.78822406       2.50072909       0.00000000
C        9.80379969       3.66122662       0.00000000
C        8.68580755       4.20420999       0.00000000
C        8.82457155       5.61162018       0.00000000
C       10.03765502       6.49291241       0.00000000
C       10.21463579       7.69873072       0.00000000
C        9.02167638       8.27673823       0.00000000
C        8.87179051       9.54712577       0.00000000
C       10.04167358      10.41640731       0.00000000
C        9.95120786      11.86491840       0.00000000
C        8.72407801      12.81032563       0.00000000
C        8.17994662      14.40188152       0.00000000
C        9.23421022      15.51250625       0.00000000
C        8.95842785      16.99825010       0.00000000
C        7.65638409      17.60883858       0.00000000
C        7.72821542      18.86535154       0.00000000
C        9.00908553      19.62466054       0.00000000
C        9.01146042      21.07206971       0.00000000
C       11.18983478       0.31044003       0.00000000
C       10.98001821       1.71784404       0.00000000
C       12.24430601       2.41042785       0.00000000
C       12.23781853       3.63056867       0.00000000
C       11.04895399       4.21323434       0.00000000
C       11.18891048       5.61882763       0.00000000
C       12.47950667       6.63982502       0.00000000
C       12.60215499       7.86452255       0.00000000
C       11.38086313       8.31877883       0.00000000
C       11.32754297       9.71227551       0.00000000
C       12.65753023      10.56056329       0.00000000
C       12.40426434      11.98947781       0.00000000
C       11.07694211      12.86921118       0.00000000
C       10.55315900      14.47306279       0.00000000
C       11.74873239      15.52910098       0.00000000
C       11.25857068      16.97312211       0.00000000
C       10.09780110      17.73269340       0.00000000
C       10.12349902      18.88727222       0.00000000
C       11.42933481      19.54828875       0.00000000
C       11.47419304      20.97047267       0.00000000
C       13.58095990       0.12945740       0.00000000
C       13.44596953       1.61826971       0.00000000
C       14.61656432       2.41120382       0.00000000
C       14.66411307       3.62979314       0.00000000
C       13.56188555       4.33666771       0.00000000
C       13.63704879       5.75319952       0.00000000
C       14.96029796       6.65041791       0.00000000
C       15.05017933       7.95465203       0.00000000
C       13.81308592       8.24125628       0.00000000
C       13.79882188       9.62579875       0.00000000
C       15.00653778      10.54053813       0.00000000
C       14.81439673      11.89197462       0.00000000
C       13.60561932      12.82947281       0.00000000
C       13.04750883      14.42633247       0.00000000
C       14.06309650      15.53799516       0.00000000
C       13.75017355      17.05153450       0.00000000
C       12.42943680      17.60555781       0.00000000
C       12.65955275      18.83538735       0.00000000
C       13.90614553      19.68136498       0.00000000
C       13.98856420      20.96851578       0.00000000
C       15.99905508       0.38166603       0.00000000
C       15.91580388       1.82484450       0.00000000
C       17.20680196       2.45020177       0.00000000
C       17.12497333       3.68241545       0.00000000
C       15.96675600       4.22774978       0.00000000
C       16.07127502       5.60579623       0.00000000
C       17.48012571       6.65431419       0.00000000
C       17.42035820       7.99827248       0.00000000
C       16.22811206       8.45220271       0.00000000
C       16.18758130       9.73899927       0.00000000
C       17.48100537      10.51472158       0.00000000
C       17.24327010      12.02838426       0.00000000
C       15.89477321      12.86029797       0.00000000
C       15.41696780      14.52231766       0.00000000
C       16.65841665      15.53403296       0.00000000
C       16.30324328      17.09218589       0.00000000
C       14.97759722      17.65069615       0.00000000
C       14.99947300      18.87768837       0.00000000
C       16.34640238      19.53176036       0.00000000
C       16.26039508      20.85895859       0.00000000
C       18.49255368       0.31066313       0.00000000
C       18.36515726       1.67078742       0.00000000
C       19.46357066       2.54477340       0.00000000
C       19.53337906       3.76305845       0.00000000
C       18.40993755       4.35323663       0.00000000
C       18.65843250       5.69530348       0.00000000
C       19.83274365       6.64270834       0.00000000
C       20.12318744       7.94796975       0.00000000
C       18.75482862       8.26430873       0.00000000
C       18.74585923       9.63346095       0.00000000
C       19.96912020      10.60150068       0.00000000
C       19.81535686      12.02897686       0.00000000
C       18.51508659      12.90479894       0.00000000
C       18.01639025      14.51455578       0.00000000
C       19.07359386      15.69504908       0.00000000
C       18.60926444      17.13702672       0.00000000
C       17.49571127      17.74147747       0.00000000
C       17.51875518      18.83011699       0.00000000
C       18.71117135      19.51113900       0.00000000
C       18.96478880      20.79215027       0.00000000
C       20.86407322       0.55335198       0.00000000
C       20.67674423       1.81545887       0.00000000
C       22.08935145       2.16296482       0.00000000
C       21.72412423       3.42847986       0.00000000
C       20.72557943       4.52472817       0.00000000
C       21.02431276       5.88492845       0.00000000
C       22.45078737       6.52429291       0.00000000
C       21.76199385       7.83281499       0.00000000
C       21.05128694       8.97654795       0.00000000
C       21.09911154       9.98107370       0.00000000
C       22.33468869      10.59551125       0.00000000
C       21.50382546      12.00129950       0.00000000
C       20.71350943      13.08776190       0.00000000
C       20.23166852      14.53224011       0.00000000
C       21.36444861      15.50403096       0.00000000
C       21.07247794      17.03414317       0.00000000
C       19.79462855      17.70349584       0.00000000
C       19.86015736      18.96329587       0.00000000
C       21.16161436      19.66267363       0.00000000
C       21.08577717      21.17918864       0.00000000
