180
Lattice="22.14 0.0 0.0 0.0 21.304224933097192 0.0 0.0 0.0 12.0" Properties=species:S:1:pos:R:3 pbc="T T T"
C        0.55615725       0.19236377       0.00000000
C        0.49863139       1.54182336       0.00000000
C        1.63833361       2.33354205       0.00000000
C        1.64627731       3.58424931       0.00000000
C        0.52088700       4.28209000       0.00000000
C        0.63906979       5.68028157       0.00000000
C        1.81452838       6.45075354       0.00000000
C        1.94590021       7.68367632       0.00000000
C        0.77072521       8.42429521       0.00000000
C        0.70209803       9.85655511       0.00000000
C        1.90310200      10.66600417       0.00000000
C        1.78970218      12.00380689       0.00000000
C        0.66608684      13.04875252       0.00000000
C        0.21492785      14.43901109       0.00000000
C        1.14391592      15.54347136       0.00000000
C        0.87539854      16.85119288       0.00000000
C       -0.20067885      17.87989234       0.00000000
C       -0.20059157      19.03692331       0.00000000
C        0.85772445      19.83441064       0.00000000
C        1.07753371      21.11236368       0.00000000
C        2.77333824       0.23560290       0.00000000
C        2.81064959       1.52783653       0.00000000
C        3.96787730       2.34435979       0.00000000
C        4.05191921       3.62413606       0.00000000
C        2.86517029       4.37599078       0.00000000
C        2.96885541       5.66090601       0.00000000
C        4.16630352       6.42274336       0.00000000
C        4.36177420       7.69834613       0.00000000
C        3.15815627       8.40750652       0.00000000
C        3.09499060       9.76087554       0.00000000
C        4.28516443      10.62987178       0.00000000
C        4.14149852      11.96837047       0.00000000
C        2.95382359      13.07715824       0.00000000
C        2.30129597      14.48389278       0.00000000
C        3.47990459      15.54030692       0.00000000
C        3.16326236      16.90185923       0.00000000
C        1.97293558      17.86169251       0.00000000
C        2.04807937      19.14890235       0.00000000
C        4.29618355      19.14844181       0.00000000
C        3.28121902      20.77453665       0.00000000
C        5.22944925       0.36968632       0.00000000
C        5.18807885       1.61431032       0.00000000
C        6.39746082       2.37461834       0.00000000
C        6.52020365       3.65885278       0.00000000
C        5.30757217       4.39956193       0.00000000
C        5.37890658       5.68105832       0.00000000
C        6.58200090       6.43811156       0.00000000
C        6.83784968       7.70928283       0.00000000
C        5.61253829       8.51273490       0.00000000
C        5.47932683       9.82728575       0.00000000
C        6.73731050      10.61740264       0.00000000
C        6.61119759      11.97463460       0.00000000
C        5.38161889      13.05142522       0.00000000
C        4.74560329      14.48662065       0.00000000
C        5.95021853      15.56316462       0.00000000
C        5.67681464      16.91914124       0.00000000
C        4.41030715      17.80616993       0.00000000
C        5.62157038      19.95916147       0.00000000
C        6.84173761      19.13464549       0.00000000
C        6.09475493      21.35311333       0.00000000
C        7.63333426       0.39525507       0.00000000
C        7.65291235       1.58734612       0.00000000
C        8.86829532       2.43612514       0.00000000
C        8.96313179       3.66937268       0.00000000
C        7.75195221       4.44065011       0.00000000
C        7.85521090       5.74493726       0.00000000
C        9.13744450       6.45221775       0.00000000
C        9.28724236       7.71991982       0.00000000
C        8.06366982       8.53591182       0.00000000
C        7.98621645       9.82761043       0.00000000
C        9.20419380      10.66533620       0.00000000
C        9.07448902      11.96429939       0.00000000
C        7.86966434      13.05818901       0.00000000
C        7.15546102      14.55162264       0.00000000
C        8.40510094      15.59036357       0.00000000
C        8.07484911      16.94655808       0.00000000
C        6.83401175      17.78777942       0.00000000
C        8.12211463      19.89838455       0.00000000
C        9.41842610      19.20909872       0.00000000
C        8.45512974      21.16503826       0.00000000
C       10.17032526       0.40212234       0.00000000
C       10.13681170       1.62375865       0.00000000
C       11.37115271       2.44827176       0.00000000
C       11.45015606       3.71084823       0.00000000
C       10.26448981       4.41793593       0.00000000
C       10.33090367       5.73729624       0.00000000
C       11.59720709       6.45748273       0.00000000
C       11.79037203       7.73222149       0.00000000
C       10.56561642       8.52476979       0.00000000
C       10.39286314       9.88301618       0.00000000
C       11.67745313      10.66452818       0.00000000
C       11.53704635      11.97553459       0.00000000
C       10.31810378      13.08830574       0.00000000
C        9.65687552      14.56102006       0.00000000
C       11.47754336      15.18966683       0.00000000
C       10.70616970      15.88956263       0.00000000
C       10.56309296      17.05018667       0.00000000
C        9.29710288      17.90251292       0.00000000
C       11.69661851      19.20405457       0.00000000
C       10.69274815      20.77737677       0.00000000
C       12.62953207       0.35450394       0.00000000
C       12.61261099       1.58555031       0.00000000
C       13.83547469       2.38716966       0.00000000
C       13.90528866       3.68529397       0.00000000
C       12.72400811       4.46156882       0.00000000
C       12.80918110       5.78363739       0.00000000
C       14.05035701       6.54724430       0.00000000
C       14.24213477       7.80442928       0.00000000
C       13.01193696       8.51466451       0.00000000
C       12.88694063       9.89564127       0.00000000
C       14.12029525      10.73482316       0.00000000
C       14.01323019      12.03272207       0.00000000
C       12.82610519      13.08860861       0.00000000
C       12.22730573      14.43408426       0.00000000
C       14.50085741      14.75036862       0.00000000
C       13.28527648      15.61552749       0.00000000
C       13.05943633      16.96493641       0.00000000
C       11.81038884      17.89304041       0.00000000
C       14.16691619      19.20360937       0.00000000
C       13.19544371      20.77829701       0.00000000
C       15.13874069       0.41050020       0.00000000
C       15.06958061       1.65815456       0.00000000
C       16.30531304       2.46607805       0.00000000
C       16.40680337       3.75663978       0.00000000
C       15.19793804       4.46631299       0.00000000
C       15.26521513       5.76457134       0.00000000
C       16.49946319       6.60110546       0.00000000
C       16.70684284       7.85916379       0.00000000
C       15.44060715       8.67238462       0.00000000
C       15.35758656       9.95517687       0.00000000
C       16.61706614      10.69287565       0.00000000
C       16.56923403      11.97128247       0.00000000
C       15.46685287      12.80003697       0.00000000
C       14.91549291      13.65334126       0.00000000
C       15.89999704      15.62419761       0.00000000
C       15.49693393      16.98786402       0.00000000
C       14.26039937      17.91463458       0.00000000
C       15.50034779      19.99434574       0.00000000
C       16.76174501      19.17229643       0.00000000
C       16.16763483      21.41220124       0.00000000
C       17.54786299       0.41111120       0.00000000
C       17.55946653       1.66707214       0.00000000
C       18.76406094       2.51317225       0.00000000
C       18.84022448       3.75834586       0.00000000
C       17.62808520       4.53305874       0.00000000
C       17.76711403       5.84162771       0.00000000
C       18.95697164       6.57887597       0.00000000
C       19.16280031       7.83993145       0.00000000
C       17.96953392       8.63953014       0.00000000
C       17.85333009       9.92756451       0.00000000
C       19.09716934      10.75653237       0.00000000
C       18.99501049      12.11236279       0.00000000
C       17.78784107      13.12687102       0.00000000
C       17.08142416      14.62344712       0.00000000
C       18.65597274      15.36058439       0.00000000
C       18.10536335      16.06508531       0.00000000
C       17.99658622      17.20119969       0.00000000
C       16.76408067      17.87755682       0.00000000
C       18.05185236      20.13031570       0.00000000
C       18.72533890      21.57156586       0.00000000
C       19.88907831       0.46321290       0.00000000
C       20.00506567       1.71032937       0.00000000
C       21.29351565       2.48515802       0.00000000
C       21.30245503       3.59615782       0.00000000
C       20.10126547       4.51384187       0.00000000
C       20.20922381       5.91252435       0.00000000
C       21.55414325       6.64350939       0.00000000
C       21.44487471       7.76342136       0.00000000
C       20.28860052       8.72233022       0.00000000
C       20.30305466      10.03166916       0.00000000
C       21.55277424      10.84992102       0.00000000
C       21.12908427      12.03031874       0.00000000
C       20.12320322      13.23732481       0.00000000
C       19.57406519      14.58546784       0.00000000
C       21.61406902      14.72887333       0.00000000
C       20.52888310      15.78332045       0.00000000
C       20.38053983      17.15747294       0.00000000
C       19.12304821      18.96824948       0.00000000
C       20.48021658      19.81929523       0.00000000
C       20.38912010      21.13461992       0.00000000
