180
Lattice="22.14 0.0 0.0 0.0 21.304224933097192 0.0 0.0 0.0 12.0" Properties=species:S:1:pos:R:3 pbc="T T T"
C        0.77399864       0.97204287       0.00000000
C        0.70649097       2.69539525       0.00000000
C        2.00453330       2.98824434       0.00000000
C        2.12511881       4.52876053       0.00000000
C        0.74509813       5.03989187       0.00000000
C        0.81926845       6.83434302       0.00000000
C        1.92459142       7.45105035       0.00000000
C        2.04169480       8.87776828       0.00000000
C        0.68800410       9.30066641       0.00000000
C        0.79545157      11.04825895       0.00000000
C        1.86690503      11.72600781       0.00000000
C        1.91313375      13.18422656       0.00000000
C        0.60781913      13.79964089       0.00000000
C        0.71850417      15.53148231       0.00000000
C        1.72604684      16.25955391       0.00000000
C        1.82198190      17.62823851       0.00000000
C        0.60792445      18.16565504       0.00000000
C        0.71124771      19.88391400       0.00000000
C        1.71291616      20.63368935       0.00000000
C        2.04042802       0.59025664       0.00000000
C        3.11169750       1.07445072       0.00000000
C        3.21770821       2.47122122       0.00000000
C        4.38035796       3.10173979       0.00000000
C        4.38991403       4.56720492       0.00000000
C        3.13432468       5.31182621       0.00000000
C        3.17520745       6.73344795       0.00000000
C        4.30058502       7.50363156       0.00000000
C        4.28301794       8.89654682       0.00000000
C        3.06693593       9.55606664       0.00000000
C        3.14750826      10.99998748       0.00000000
C        4.23228838      11.76664809       0.00000000
C        4.21807745      13.17923245       0.00000000
C        2.95819064      13.95415341       0.00000000
C        2.92027967      15.39854943       0.00000000
C        4.08237400      16.13473197       0.00000000
C        4.14735993      17.55269141       0.00000000
C        2.95026820      18.32497988       0.00000000
C        2.78457647      19.75386424       0.00000000
C        4.00721261      20.53997969       0.00000000
C        4.31526066       0.53710993       0.00000000
C        5.52902674       1.01303711       0.00000000
C        5.59186052       2.43703530       0.00000000
C        6.78686774       3.10167874       0.00000000
C        6.82786207       4.55156355       0.00000000
C        5.54323568       5.27582827       0.00000000
C        5.52305190       6.72884980       0.00000000
C        6.66926461       7.47219728       0.00000000
C        6.80040509       8.92470755       0.00000000
C        5.49838795       9.53037870       0.00000000
C        5.50338815      10.98771949       0.00000000
C        6.64387218      11.81492500       0.00000000
C        6.60273334      13.26204664       0.00000000
C        5.29968246      14.02532522       0.00000000
C        5.39378274      15.50101823       0.00000000
C        6.54209901      16.20040516       0.00000000
C        6.52017952      17.64480049       0.00000000
C        5.22377868      18.38225818       0.00000000
C        5.29043999      19.83230330       0.00000000
C        6.48214254      20.58038547       0.00000000
C        6.73567708       0.57692167       0.00000000
C        7.94809771       1.02526580       0.00000000
C        8.07953070       2.46615479       0.00000000
C        9.25926814       3.16559752       0.00000000
C        9.30838879       4.64667942       0.00000000
C        7.95701611       5.27293818       0.00000000
C        8.00447883       6.75769132       0.00000000
C        9.10755621       7.49162100       0.00000000
C        9.15562828       8.92679108       0.00000000
C        7.91919091       9.62457646       0.00000000
C        7.92932868      11.03874934       0.00000000
C        9.07818873      11.77503834       0.00000000
C        9.04423633      13.26542361       0.00000000
C        7.72662163      14.00768729       0.00000000
C        7.81204675      15.50547754       0.00000000
C        8.99319777      16.24005059       0.00000000
C        8.87713465      17.60493833       0.00000000
C        7.70207267      18.35699627       0.00000000
C        7.71539104      19.83314466       0.00000000
C        8.89482563      20.58103840       0.00000000
C        9.20573169       0.58030999       0.00000000
C       10.42926634       1.05820574       0.00000000
C       10.49169847       2.49789287       0.00000000
C       11.66671931       3.17370043       0.00000000
C       11.73491905       4.63986534       0.00000000
C       10.45300539       5.34605820       0.00000000
C       10.39869694       6.79836162       0.00000000
C       11.57315824       7.50520672       0.00000000
C       11.64130908       8.92153910       0.00000000
C       10.37027387       9.62720618       0.00000000
C       10.40149057      11.06895022       0.00000000
C       11.49221362      11.82144318       0.00000000
C       11.49090435      13.27742471       0.00000000
C       10.19186032      14.05311344       0.00000000
C       10.18188807      15.52584069       0.00000000
C       11.35575286      16.22216870       0.00000000
C       11.33138282      17.67412886       0.00000000
C       10.01949728      18.34248061       0.00000000
C       10.11890215      19.84353686       0.00000000
C       11.33885355      20.65091966       0.00000000
C       11.62021716       0.58026596       0.00000000
C       12.88954520       1.07500221       0.00000000
C       12.90949536       2.53505806       0.00000000
C       14.10583120       3.22303247       0.00000000
C       14.19833596       4.63250436       0.00000000
C       12.90922924       5.34266690       0.00000000
C       12.87264263       6.78735622       0.00000000
C       14.00962307       7.53040531       0.00000000
C       14.10647692       8.92908769       0.00000000
C       12.81787171       9.64588346       0.00000000
C       12.79913457      11.10975182       0.00000000
C       13.97323073      11.80458988       0.00000000
C       13.92048008      13.31158524       0.00000000
C       12.59879737      14.05410076       0.00000000
C       12.68561735      15.54801236       0.00000000
C       13.86749061      16.27433234       0.00000000
C       13.80824059      17.69586083       0.00000000
C       12.53977996      18.36563477       0.00000000
C       12.56852422      19.87074664       0.00000000
C       13.78256913      20.60440175       0.00000000
C       14.09425904       0.57822814       0.00000000
C       15.34252583       1.11546609       0.00000000
C       15.35951779       2.50845515       0.00000000
C       16.58287805       3.21640930       0.00000000
C       16.62670946       4.68108963       0.00000000
C       15.34089147       5.39007525       0.00000000
C       15.31183320       6.83796425       0.00000000
C       16.51060986       7.56150135       0.00000000
C       16.54535647       8.98738790       0.00000000
C       15.26222720       9.64240698       0.00000000
C       15.27887791      11.07533726       0.00000000
C       16.38685147      11.89812241       0.00000000
C       16.38936901      13.31154555       0.00000000
C       15.07579060      14.03108936       0.00000000
C       15.12851351      15.53787573       0.00000000
C       16.27173403      16.27135019       0.00000000
C       16.29540249      17.67058699       0.00000000
C       15.03529683      18.37697681       0.00000000
C       15.01169173      19.85664953       0.00000000
C       16.25866144      20.65469410       0.00000000
C       16.50630231       0.59848226       0.00000000
C       17.73274908       1.08537693       0.00000000
C       17.84425624       2.49394327       0.00000000
C       19.00619220       3.33406200       0.00000000
C       19.05117895       4.75333255       0.00000000
C       17.77874307       5.39729919       0.00000000
C       17.78786211       6.85112077       0.00000000
C       18.94634826       7.60464290       0.00000000
C       18.95453155       8.94014849       0.00000000
C       17.74992724       9.70385667       0.00000000
C       17.65790360      11.10066589       0.00000000
C       18.80326615      11.86610470       0.00000000
C       18.78764284      13.32438142       0.00000000
C       17.47700212      14.11946296       0.00000000
C       17.53873043      15.58332713       0.00000000
C       18.71152032      16.35693349       0.00000000
C       18.79192962      17.76540017       0.00000000
C       17.50643104      18.40329211       0.00000000
C       17.51836571      19.90647827       0.00000000
C       18.74405577      20.66197684       0.00000000
C       18.93542903       0.56447643       0.00000000
C       20.16537536       1.09769525       0.00000000
C       20.24564797       2.54855451       0.00000000
C       21.39988856       3.29666653       0.00000000
C       21.37190474       4.68452065       0.00000000
C       20.24833929       5.45864742       0.00000000
C       20.22966913       6.88815051       0.00000000
C       21.37197038       7.63196256       0.00000000
C       21.37570290       8.97814332       0.00000000
C       20.11997483       9.70890664       0.00000000
C       20.20446469      11.18786108       0.00000000
C       21.40630275      11.90914808       0.00000000
C       21.36681675      13.41903661       0.00000000
C       19.92106829      14.07347452       0.00000000
C       20.05356376      15.63016234       0.00000000
C       21.40107423      16.35714015       0.00000000
C       21.35306232      17.80428061       0.00000000
C       20.01896588      18.52282342       0.00000000
C       20.01607012      19.97306589       0.00000000
C       21.40016407      20.58147244       0.00000000
C       21.42467376       0.62245958       0.00000000
