180
Lattice="22.14 0.0 0.0 0.0 21.304224933097192 0.0 0.0 0.0 12.0" Properties=species:S:1:pos:R:3 pbc="T T T"
C        0.81752161       1.04770248       0.00000000
C        0.87563647       2.53691034       0.00000000
C        2.04187220       3.14956388       0.00000000
C        2.08618228       4.58701593       0.00000000
C        0.91314011       5.27097584       0.00000000
C        0.86903537       6.82040712       0.00000000
C        2.00313776       7.48144369       0.00000000
C        2.00054570       8.90655388       0.00000000
C        0.85070240       9.55666691       0.00000000
C        0.82493903      11.06864694       0.00000000
C        1.95835716      11.79676439       0.00000000
C        1.92362069      13.24080678       0.00000000
C        0.74629567      13.93781937       0.00000000
C        0.73376727      15.49681070       0.00000000
C        1.78378330      16.23308140       0.00000000
C        1.79912905      17.63087810       0.00000000
C        0.63169393      18.31445645       0.00000000
C        0.64202185      19.80797156       0.00000000
C        1.77736141      20.44713252       0.00000000
C        1.97223369       0.47712423       0.00000000
C        3.13791886       1.11162527       0.00000000
C        3.19412451       2.48873098       0.00000000
C        4.38252321       3.15760442       0.00000000
C        4.36419998       4.63152612       0.00000000
C        3.16684245       5.31694912       0.00000000
C        3.16337619       6.76898586       0.00000000
C        4.31579368       7.51793156       0.00000000
C        4.30752572       8.92539948       0.00000000
C        3.13934598       9.60762678       0.00000000
C        3.13694992      11.04041688       0.00000000
C        4.27899956      11.83132020       0.00000000
C        4.21045203      13.27780883       0.00000000
C        2.98396168      14.00978199       0.00000000
C        2.96349119      15.44542785       0.00000000
C        4.12938131      16.17948319       0.00000000
C        4.14113276      17.62661508       0.00000000
C        2.94272178      18.34894510       0.00000000
C        2.89998978      19.78978945       0.00000000
C        4.11042391      20.48572255       0.00000000
C        4.31747906       0.44361690       0.00000000
C        5.53797053       1.12129398       0.00000000
C        5.58341058       2.49220317       0.00000000
C        6.78287762       3.20023573       0.00000000
C        6.80368366       4.62526507       0.00000000
C        5.56789084       5.32243201       0.00000000
C        5.53683585       6.76234969       0.00000000
C        6.75506227       7.50665248       0.00000000
C        6.76499940       8.96018248       0.00000000
C        5.52968984       9.62842974       0.00000000
C        5.49312182      11.07432559       0.00000000
C        6.67088207      11.82568625       0.00000000
C        6.61237431      13.30813333       0.00000000
C        5.37499601      14.00979416       0.00000000
C        5.34439165      15.47529233       0.00000000
C        6.53518347      16.21905748       0.00000000
C        6.56549938      17.68239187       0.00000000
C        5.29981332      18.37844329       0.00000000
C        5.31365094      19.83335648       0.00000000
C        6.52337216      20.48657122       0.00000000
C        6.73231376       0.51339114       0.00000000
C        7.96743003       1.13162805       0.00000000
C        8.03321189       2.51028283       0.00000000
C        9.27190053       3.18715768       0.00000000
C        9.27926585       4.64833686       0.00000000
C        7.97699821       5.33762589       0.00000000
C        8.00043214       6.80411772       0.00000000
C        9.16692146       7.52994020       0.00000000
C        9.17761938       8.96389906       0.00000000
C        7.98881050       9.67317209       0.00000000
C        7.90307510      11.10214144       0.00000000
C        9.11770416      11.83046660       0.00000000
C        9.06749711      13.30548346       0.00000000
C        7.79702378      14.04323592       0.00000000
C        7.79440403      15.52238209       0.00000000
C        9.01203378      16.28910135       0.00000000
C        8.95696335      17.66697587       0.00000000
C        7.77867312      18.37738082       0.00000000
C        7.72244724      19.82097781       0.00000000
C        8.99123271      20.48050553       0.00000000
C        9.18191400       0.51271103       0.00000000
C       10.42851226       1.15201483       0.00000000
C       10.45935260       2.51304190       0.00000000
C       11.68410016       3.19545250       0.00000000
C       11.72296214       4.65953069       0.00000000
C       10.48948338       5.36840145       0.00000000
C       10.39326264       6.82393683       0.00000000
C       11.61350361       7.55543791       0.00000000
C       11.65919570       8.94795514       0.00000000
C       10.45136510       9.64783878       0.00000000
C       10.37992161      11.09573144       0.00000000
C       11.54601787      11.85354212       0.00000000
C       11.50586827      13.33930188       0.00000000
C       10.24403380      14.09527340       0.00000000
C       10.22471052      15.54460420       0.00000000
C       11.44042904      16.27275406       0.00000000
C       11.40570561      17.71362008       0.00000000
C       10.12535520      18.38232421       0.00000000
C       10.15595942      19.80274739       0.00000000
C       11.40861352      20.56195526       0.00000000
C       11.62262090       0.53934263       0.00000000
C       12.88969178       1.16467204       0.00000000
C       12.89526990       2.56424898       0.00000000
C       14.13562405       3.23521215       0.00000000
C       14.16466136       4.67913808       0.00000000
C       12.92832115       5.35655627       0.00000000
C       12.89408826       6.82460217       0.00000000
C       14.09660082       7.57379455       0.00000000
C       14.09588524       8.98130072       0.00000000
C       12.87386345       9.68291214       0.00000000
C       12.83806173      11.13234229       0.00000000
C       14.03904682      11.84867461       0.00000000
C       13.94418325      13.34022994       0.00000000
C       12.69151680      14.07974854       0.00000000
C       12.71130518      15.59060067       0.00000000
C       13.92383156      16.29931098       0.00000000
C       13.84550026      17.71328327       0.00000000
C       12.63864784      18.42131652       0.00000000
C       12.63992140      19.85131226       0.00000000
C       13.88161550      20.52770600       0.00000000
C       14.14709231       0.53639449       0.00000000
C       15.38027605       1.17032699       0.00000000
C       15.38588559       2.55541315       0.00000000
C       16.59177728       3.24705944       0.00000000
C       16.59655204       4.69718502       0.00000000
C       15.33774258       5.43368521       0.00000000
C       15.30146815       6.88068254       0.00000000
C       16.52487540       7.57643550       0.00000000
C       16.53783871       9.01663883       0.00000000
C       15.30773624       9.69816831       0.00000000
C       15.28181452      11.13327946       0.00000000
C       16.46750116      11.89615037       0.00000000
C       16.38311747      13.36276235       0.00000000
C       15.13164674      14.09366481       0.00000000
C       15.12305072      15.57088888       0.00000000
C       16.30716551      16.30669691       0.00000000
C       16.32627259      17.73187703       0.00000000
C       15.07841542      18.41587043       0.00000000
C       15.04430271      19.85172351       0.00000000
C       16.31741904      20.54432104       0.00000000
C       16.55121598       0.57934619       0.00000000
C       17.76000700       1.16820474       0.00000000
C       17.83955822       2.53719093       0.00000000
C       19.01806269       3.33069955       0.00000000
C       19.02576581       4.73126417       0.00000000
C       17.79757015       5.41210936       0.00000000
C       17.79863666       6.88668364       0.00000000
C       18.98492222       7.62655997       0.00000000
C       18.98104512       8.99615160       0.00000000
C       17.77259944       9.70645334       0.00000000
C       17.69972486      11.12132569       0.00000000
C       18.84645960      11.91287456       0.00000000
C       18.82102641      13.36704368       0.00000000
C       17.58736508      14.09946672       0.00000000
C       17.57144762      15.60416107       0.00000000
C       18.75902270      16.32810272       0.00000000
C       18.76059520      17.75037765       0.00000000
C       17.54300507      18.43731096       0.00000000
C       17.54668361      19.87865406       0.00000000
C       18.73841954      20.56532278       0.00000000
C       18.92964101       0.57151506       0.00000000
C       20.14977104       1.18738349       0.00000000
C       20.19329550       2.60573365       0.00000000
C       21.35945183       3.17905040       0.00000000
C       21.33721406       4.70741116       0.00000000
C       20.18601799       5.41578144       0.00000000
C       20.16786844       6.89294996       0.00000000
C       21.25941231       7.51565740       0.00000000
C       21.28769552       9.01024711       0.00000000
C       20.13060070       9.69531379       0.00000000
C       20.08180759      11.16396302       0.00000000
C       21.19374690      11.81516771       0.00000000
C       21.17958736      13.40908324       0.00000000
C       19.92160821      14.08633406       0.00000000
C       19.95103940      15.52620015       0.00000000
C       21.03890210      16.20034218       0.00000000
C       21.14480982      17.80120622       0.00000000
C       19.91299945      18.47414453       0.00000000
C       19.93980594      19.88195321       0.00000000
C       21.11798875      20.43897851       0.00000000
C       21.36551636       0.56336442       0.00000000
