180
Lattice="22.35920792079208 0.0 0.0 0.0 21.515157853226867 0.0 0.0 0.0 12.118811881188119" Properties=species:S:1:pos:R:3 pbc="T T T"
C        0.74432642       0.04886669       0.00000000
C        0.93181341       1.75991913       0.00000000
C        2.04641206       2.47119471       0.00000000
C        2.16068001       3.70418316       0.00000000
C        1.11707238       4.20584906       0.00000000
C        1.10180054       5.66456219       0.00000000
C        2.28657812       6.32704550       0.00000000
C        2.36432114       7.60947714       0.00000000
C        1.29258033       8.29413589       0.00000000
C        1.17187969       9.80531984       0.00000000
C        2.31242321      10.47237672       0.00000000
C        2.28687611      11.80526846       0.00000000
C        1.22517717      12.60658723       0.00000000
C        0.50098385      14.28895588       0.00000000
C        1.59966439      15.25080964       0.00000000
C        1.21315781      16.81695327       0.00000000
C        0.33536706      17.96427055       0.00000000
C       -0.08707344      18.70131571       0.00000000
C        1.16842953      19.44243024       0.00000000
C        1.67408340      20.86647537       0.00000000
C        3.04000276       0.60244647       0.00000000
C        3.21397332       1.86010738       0.00000000
C        4.30967070       2.53810827       0.00000000
C        4.04151629       3.69144419       0.00000000
C        3.13940698       4.34326710       0.00000000
C        3.28881676       5.55553397       0.00000000
C        4.31674681       6.48097725       0.00000000
C        4.68369821       7.73020454       0.00000000
C        3.47940721       8.31397367       0.00000000
C        3.34044102       9.70366644       0.00000000
C        4.46757860      10.41549692       0.00000000
C        4.32410115      11.81211178       0.00000000
C        3.22990871      12.74182587       0.00000000
C        2.73248461      14.30301480       0.00000000
C        3.75277912      15.29235513       0.00000000
C        3.43193430      16.79525066       0.00000000
C        2.31654856      17.50048083       0.00000000
C        2.25235830      18.76179769       0.00000000
C        3.48215108      19.39861579       0.00000000
C        3.52881077      20.70139170       0.00000000
C        5.30465999       0.55477785       0.00000000
C        5.40526353       1.85836266       0.00000000
C        6.65934019       2.54523305       0.00000000
C        6.64020523       3.87289667       0.00000000
C        5.33726912       4.16857348       0.00000000
C        5.58824801       5.69732815       0.00000000
C        6.93706230       6.49925374       0.00000000
C        7.11377518       7.79772615       0.00000000
C        5.88241576       8.33321845       0.00000000
C        5.69910624       9.73526430       0.00000000
C        7.00985534      10.41057427       0.00000000
C        6.90461331      11.89180840       0.00000000
C        5.53367614      12.64259494       0.00000000
C        5.01931629      14.39925050       0.00000000
C        6.17975625      15.34170529       0.00000000
C        5.79966554      16.85213337       0.00000000
C        4.55210075      17.48110726       0.00000000
C        4.63611803      18.76137713       0.00000000
C        5.96360539      19.35701514       0.00000000
C        6.09927757      20.75579480       0.00000000
C        7.99192756       0.38447617       0.00000000
C        7.87525791       1.83183520       0.00000000
C        9.03204014       2.53419659       0.00000000
C        9.16619277       3.77137252       0.00000000
C        8.02382401       4.21515532       0.00000000
C        8.08535348       5.65160541       0.00000000
C        9.26636912       6.55025445       0.00000000
C        9.55969163       7.82292351       0.00000000
C        8.33494760       8.33351089       0.00000000
C        8.19137684       9.70352111       0.00000000
C        9.36452365      10.42177514       0.00000000
C        9.23653295      11.84493889       0.00000000
C        8.07766280      12.73141961       0.00000000
C        7.46202238      14.42761834       0.00000000
C        8.56122084      15.37505105       0.00000000
C        8.18190422      16.92016745       0.00000000
C        6.89444638      17.41758967       0.00000000
C        7.12572733      18.69249394       0.00000000
C        8.36915382      19.52935091       0.00000000
C        9.04542182      20.92727633       0.00000000
C       10.15625791       0.56127026       0.00000000
C       10.29062998       1.89986031       0.00000000
C       11.51325395       2.61035902       0.00000000
C       11.40576092       3.88639654       0.00000000
C       10.27682473       4.29416354       0.00000000
C       10.42706230       5.72733220       0.00000000
C       11.71595352       6.58937484       0.00000000
C       11.97409293       7.84054398       0.00000000
C       10.77085032       8.28632632       0.00000000
C       10.51573043       9.67076326       0.00000000
C       11.72828749      10.49570419       0.00000000
C       11.72577421      11.96587777       0.00000000
C       10.37174010      12.70634415       0.00000000
C        9.85776258      14.43448397       0.00000000
C       11.01898180      15.37739817       0.00000000
C       10.62219441      16.94162273       0.00000000
C        9.37339882      17.49847933       0.00000000
C        9.42551907      18.73591466       0.00000000
C       10.65093043      19.44382457       0.00000000
C       10.79554330      20.74705459       0.00000000
C       12.66732102       0.42509124       0.00000000
C       12.68757120       1.84051328       0.00000000
C       13.91641587       2.56698821       0.00000000
C       13.94338507       3.83849104       0.00000000
C       12.76936675       4.23775145       0.00000000
C       12.88255042       5.73408886       0.00000000
C       14.13088689       6.62961757       0.00000000
C       14.32874778       7.94851934       0.00000000
C       13.09283951       8.31765908       0.00000000
C       12.97358899       9.73172100       0.00000000
C       14.20551960      10.48081153       0.00000000
C       14.07178615      11.91390869       0.00000000
C       12.87317766      12.81408156       0.00000000
C       12.25897659      14.45402321       0.00000000
C       13.30233682      15.36865003       0.00000000
C       13.07377165      16.88919122       0.00000000
C       11.84559755      17.43527305       0.00000000
C       11.84194349      18.73273888       0.00000000
C       13.17364323      19.49360518       0.00000000
C       13.81352646      20.92816126       0.00000000
C       15.05542612       0.59600360       0.00000000
C       15.10114958       1.94503921       0.00000000
C       16.31136952       2.58009010       0.00000000
C       16.30545292       3.86229408       0.00000000
C       15.17183051       4.25611197       0.00000000
C       15.28195238       5.68027550       0.00000000
C       16.50476113       6.65122206       0.00000000
C       16.77665796       7.98027079       0.00000000
C       15.53538081       8.43378472       0.00000000
C       15.39184688       9.77130579       0.00000000
C       16.56992393      10.48800913       0.00000000
C       16.51257133      11.97970609       0.00000000
C       15.17710890      12.76226591       0.00000000
C       14.63679428      14.48069995       0.00000000
C       15.88951329      15.42781862       0.00000000
C       15.40992972      17.01627755       0.00000000
C       14.16415840      17.57922021       0.00000000
C       14.29409519      18.78828337       0.00000000
C       15.55290027      19.40650190       0.00000000
C       15.67294911      20.59782300       0.00000000
C       17.51933554       0.59622776       0.00000000
C       17.51052519       1.89950515       0.00000000
C       18.68737496       2.64268683       0.00000000
C       18.70927016       3.88478746       0.00000000
C       17.56401437       4.40959656       0.00000000
C       17.73388608       5.86378475       0.00000000
C       19.00636622       6.70146679       0.00000000
C       19.20499341       7.91625627       0.00000000
C       18.01300529       8.37659904       0.00000000
C       17.79196136       9.73015356       0.00000000
C       19.06694242      10.57013366       0.00000000
C       18.95963987      12.00661442       0.00000000
C       17.71245594      12.81086190       0.00000000
C       17.15402507      14.52019138       0.00000000
C       18.15345627      15.61006595       0.00000000
C       17.82189742      17.10450714       0.00000000
C       16.61294796      17.42785216       0.00000000
C       16.72657596      18.61999334       0.00000000
C       17.88471963      19.46497609       0.00000000
C       18.27564920      20.76425235       0.00000000
C       19.80774543       0.59936422       0.00000000
C       19.85818493       1.95221865       0.00000000
C       20.96681144       3.07031971       0.00000000
C       21.51843162       4.49013376       0.00000000
C       20.04672318       4.33007655       0.00000000
C       20.11682651       5.83914372       0.00000000
C       21.08071268       7.20216270       0.00000000
C       21.63006207       8.57827222       0.00000000
C       20.27946391       8.48011269       0.00000000
C       20.19740172       9.83376566       0.00000000
C       21.39401355      10.49863182       0.00000000
C       20.67668255      11.66705516       0.00000000
C       19.89655289      12.92474903       0.00000000
C       19.29139436      14.59863339       0.00000000
C       20.44173731      15.44053395       0.00000000
C       20.18382765      16.96871131       0.00000000
C       19.01753832      17.48111352       0.00000000
C       19.00387179      18.77962230       0.00000000
C       20.31903800      19.53587682       0.00000000
C       22.47917287      20.05154924       0.00000000
