180
Lattice="22.14 0.0 0.0 0.0 21.304224933097192 0.0 0.0 0.0 12.0" Properties=species:S:1:pos:R:3 pbc="T T T"
C        1.15630954       0.05794135       0.00000000
C        1.07644305       1.60885951       0.00000000
C        2.14756420       2.38000743       0.00000000
C        2.22900851       3.65274565       0.00000000
C        1.11930373       4.34053426       0.00000000
C        1.24477603       5.69995359       0.00000000
C        2.37828706       6.42679689       0.00000000
C        2.54306842       7.69506474       0.00000000
C        1.38123681       8.38738563       0.00000000
C        1.35113112       9.80056094       0.00000000
C        2.44106101      10.59474413       0.00000000
C        2.37381163      11.95696432       0.00000000
C        1.18532703      12.81936838       0.00000000
C        0.73626999      14.42087354       0.00000000
C        1.68705057      15.40678225       0.00000000
C        1.45364864      16.82372666       0.00000000
C        0.23683988      17.71924103       0.00000000
C        0.14267074      18.97842711       0.00000000
C        1.40141575      19.69054343       0.00000000
C        1.55582342      21.14796026       0.00000000
C        3.34109116       0.20586205       0.00000000
C        3.34546991       1.66367390       0.00000000
C        4.48607280       2.38809620       0.00000000
C        4.54713971       3.67660219       0.00000000
C        3.39843537       4.36944912       0.00000000
C        3.50952596       5.69959510       0.00000000
C        4.69264650       6.42815476       0.00000000
C        4.92041278       7.71618243       0.00000000
C        3.69656269       8.39191616       0.00000000
C        3.61468962       9.77077085       0.00000000
C        4.77326778      10.57657943       0.00000000
C        4.69813262      11.95335055       0.00000000
C        3.47715528      12.82994632       0.00000000
C        2.89160026      14.48182139       0.00000000
C        3.98396524      15.42862855       0.00000000
C        3.72721848      16.82977460       0.00000000
C        2.51516030      17.68985750       0.00000000
C        2.49413692      18.99694149       0.00000000
C        3.69011256      19.69645389       0.00000000
C        3.81962319      21.07217756       0.00000000
C        5.76008020       0.29228305       0.00000000
C        5.72731619       1.70435865       0.00000000
C        6.89444939       2.41422293       0.00000000
C        7.02432412       3.73108810       0.00000000
C        5.79061020       4.39411260       0.00000000
C        5.90381208       5.74494740       0.00000000
C        7.09637326       6.44840612       0.00000000
C        7.36076813       7.75743015       0.00000000
C        6.11409126       8.44459645       0.00000000
C        6.00968199       9.81602871       0.00000000
C        7.22664432      10.56078364       0.00000000
C        7.15077730      11.97590829       0.00000000
C        5.82499446      12.91687113       0.00000000
C        5.27756685      14.58329090       0.00000000
C        6.40675812      15.47277754       0.00000000
C        6.16971665      16.89500331       0.00000000
C        4.87539264      17.67801416       0.00000000
C        4.88113505      19.02729628       0.00000000
C        6.10882609      19.73060607       0.00000000
C        6.32114321      21.13792316       0.00000000
C        8.19960637       0.32705010       0.00000000
C        8.15834235       1.72427917       0.00000000
C        9.34580537       2.46517009       0.00000000
C        9.43966208       3.75580531       0.00000000
C        8.23320342       4.44462689       0.00000000
C        8.35051914       5.78933552       0.00000000
C        9.58695995       6.44711764       0.00000000
C        9.80608142       7.73686377       0.00000000
C        8.54121509       8.47125858       0.00000000
C        8.47561565       9.83699265       0.00000000
C        9.66991143      10.59093701       0.00000000
C        9.57938306      11.97966556       0.00000000
C        8.32455671      12.89542797       0.00000000
C        7.69160964      14.58229111       0.00000000
C        8.82089115      15.51296001       0.00000000
C        8.57265594      16.93699002       0.00000000
C        7.30939588      17.69387769       0.00000000
C        7.29545797      19.04242615       0.00000000
C        8.56622225      19.71294463       0.00000000
C        8.75119352      21.09098631       0.00000000
C       10.68525685       0.36290448       0.00000000
C       10.60260126       1.73952009       0.00000000
C       11.79839570       2.45276032       0.00000000
C       11.89335719       3.76437465       0.00000000
C       10.69589415       4.42460545       0.00000000
C       10.79521580       5.77638768       0.00000000
C       12.01187410       6.49090749       0.00000000
C       12.26277669       7.76624019       0.00000000
C       11.00491604       8.47738196       0.00000000
C       10.88337461       9.86345007       0.00000000
C       12.09245017      10.63576097       0.00000000
C       12.03222276      11.99822003       0.00000000
C       10.75440915      12.91444980       0.00000000
C       10.14339156      14.59269561       0.00000000
C       11.30175813      15.50907728       0.00000000
C       11.04682246      16.93155411       0.00000000
C        9.75422988      17.72320273       0.00000000
C        9.74695675      19.03467786       0.00000000
C       10.98120885      19.69562832       0.00000000
C       11.18013119      21.05441619       0.00000000
C       13.02169409       0.30051633       0.00000000
C       13.06278828       1.72412994       0.00000000
C       14.23673493       2.42965649       0.00000000
C       14.31892531       3.75330361       0.00000000
C       13.13212836       4.47333841       0.00000000
C       13.25841370       5.83521346       0.00000000
C       14.46942289       6.53671357       0.00000000
C       14.68650871       7.83562878       0.00000000
C       13.43186758       8.49173588       0.00000000
C       13.34438878       9.89835164       0.00000000
C       14.55190444      10.66413325       0.00000000
C       14.45699735      12.01883300       0.00000000
C       13.20100984      12.94487851       0.00000000
C       12.58252933      14.63208364       0.00000000
C       13.72357504      15.51378758       0.00000000
C       13.45591124      16.94976063       0.00000000
C       12.19119375      17.75193871       0.00000000
C       12.18633548      19.07324284       0.00000000
C       13.46020757      19.73706246       0.00000000
C       13.67823976      21.08131505       0.00000000
C       15.57534989       0.37176344       0.00000000
C       15.49859765       1.78397251       0.00000000
C       16.69176937       2.50053477       0.00000000
C       16.78736397       3.82568193       0.00000000
C       15.57214797       4.47935396       0.00000000
C       15.68716399       5.83238638       0.00000000
C       16.88704653       6.57755776       0.00000000
C       17.13005469       7.86509869       0.00000000
C       15.86398344       8.57981574       0.00000000
C       15.78930625       9.94267312       0.00000000
C       17.00477394      10.66359303       0.00000000
C       16.93775490      12.03722639       0.00000000
C       15.63937499      12.92545991       0.00000000
C       15.04028358      14.63947657       0.00000000
C       16.23984667      15.54652740       0.00000000
C       15.91934206      16.99135661       0.00000000
C       14.63472130      17.76416811       0.00000000
C       14.64073148      19.06454080       0.00000000
C       15.87589070      19.70042637       0.00000000
C       16.12021421      21.01794402       0.00000000
C       17.97459513       0.40461688       0.00000000
C       17.93666062       1.78377931       0.00000000
C       19.09298126       2.53809334       0.00000000
C       19.21095582       3.82971251       0.00000000
C       18.04026924       4.53388940       0.00000000
C       18.14929606       5.89075794       0.00000000
C       19.36600066       6.59943028       0.00000000
C       19.58178508       7.86348860       0.00000000
C       18.34581812       8.58560771       0.00000000
C       18.24201279       9.93925395       0.00000000
C       19.47632378      10.68724046       0.00000000
C       19.43262678      12.09113886       0.00000000
C       18.13294410      12.95045397       0.00000000
C       17.51547848      14.63435494       0.00000000
C       18.64386810      15.63900920       0.00000000
C       18.36793637      17.05333265       0.00000000
C       17.10008739      17.79505902       0.00000000
C       17.10586964      19.08417202       0.00000000
C       18.36704495      19.77019893       0.00000000
C       18.64087044      21.08261468       0.00000000
C       20.28906404       0.44711232       0.00000000
C       20.36521336       1.81558807       0.00000000
C       21.54076831       2.59507317       0.00000000
C       21.74047522       3.71562318       0.00000000
C       20.46177367       4.50970030       0.00000000
C       20.55680277       5.93780820       0.00000000
C       21.82649729       6.59351333       0.00000000
C       21.79737898       7.80329562       0.00000000
C       20.67376477       8.67782465       0.00000000
C       20.68982399      10.03806836       0.00000000
C       21.88129021      10.97276371       0.00000000
C       21.06485883      12.36816875       0.00000000
C       20.28207106      13.28365529       0.00000000
C       19.88256967      14.70883032       0.00000000
C       20.93097180      15.66013133       0.00000000
C       20.81343652      17.07125631       0.00000000
C       19.53947664      17.79081529       0.00000000
C       19.51646939      19.08467775       0.00000000
C       20.76209222      19.76096412       0.00000000
C       20.73951068      21.23711848       0.00000000
