180
Lattice="22.14 0.0 0.0 0.0 21.304224933097192 0.0 0.0 0.0 12.0" Properties=species:S:1:pos:R:3 pbc="T T T"
C        1.16306905       0.87184389       0.00000000
C        0.53659836       2.51688853       0.00000000
C        2.38794107       2.86961413       0.00000000
C        2.45926464       4.53531274       0.00000000
C        0.44298542       4.57595587       0.00000000
C        0.91967822       6.51008312       0.00000000
C        2.03944864       7.35604618       0.00000000
C        1.98223911       8.87715998       0.00000000
C        0.88728281       9.61609075       0.00000000
C        0.27135348      11.51899632       0.00000000
C        2.25748525      11.52750408       0.00000000
C        2.07841118      12.98991781       0.00000000
C        0.48275366      13.23796980       0.00000000
C        0.59000790      15.55414029       0.00000000
C        2.15130704      15.84117781       0.00000000
C        1.97317827      17.29646015       0.00000000
C        0.30108033      17.46703277       0.00000000
C        0.86075430      19.26078588       0.00000000
C        2.03662831      20.36931172       0.00000000
C        2.29707074       0.02322565       0.00000000
C        3.61845990       1.06529566       0.00000000
C        3.57573607       2.34365089       0.00000000
C        4.96979086       3.23759272       0.00000000
C        4.72192148       4.53716549       0.00000000
C        3.58980814       5.25988228       0.00000000
C        3.36082588       6.43228505       0.00000000
C        4.78524798       7.07320072       0.00000000
C        4.53048898       8.71405575       0.00000000
C        3.47647926       9.35714716       0.00000000
C        3.50841216      10.60747184       0.00000000
C        4.62297523      11.78358342       0.00000000
C        4.22007002      13.08578201       0.00000000
C        3.46810495      13.90367210       0.00000000
C        3.28415821      15.06131752       0.00000000
C        4.57687743      16.03062103       0.00000000
C        4.41063625      17.41228719       0.00000000
C        3.16701043      17.98959080       0.00000000
C        3.27837355      19.22554830       0.00000000
C        4.00599821      20.53002034       0.00000000
C        4.53987668       0.05229872       0.00000000
C        6.03848090       1.04420264       0.00000000
C        5.96727309       2.30592743       0.00000000
C        7.08623286       3.13476449       0.00000000
C        7.35555433       4.20386364       0.00000000
C        5.90019095       5.36660252       0.00000000
C        5.86476861       6.34960826       0.00000000
C        7.26097193       7.41499790       0.00000000
C        6.96617996       8.78222930       0.00000000
C        5.76947276       9.37359468       0.00000000
C        5.96636795      10.71075730       0.00000000
C        6.88533781      11.72193393       0.00000000
C        7.09723735      13.31601346       0.00000000
C        5.40752271      13.59985077       0.00000000
C        5.83985029      15.16382272       0.00000000
C        6.95459690      16.26327207       0.00000000
C        6.63342650      17.54015021       0.00000000
C        5.63021079      18.06988696       0.00000000
C        5.47044213      19.54981121       0.00000000
C        6.79146296      20.43704819       0.00000000
C        7.11400858       0.30166428       0.00000000
C        8.32030952       0.97224951       0.00000000
C        8.45433850       2.44663569       0.00000000
C        9.44146379       3.07221537       0.00000000
C        9.57232744       4.64496250       0.00000000
C        7.97326735       5.36502986       0.00000000
C        8.57464686       6.43847319       0.00000000
C        9.70307419       7.46564768       0.00000000
C        9.57394061       8.67508018       0.00000000
C        8.30087277       9.38817111       0.00000000
C        8.19060150      10.72737391       0.00000000
C        9.39251481      11.49961627       0.00000000
C        9.35210314      13.28371652       0.00000000
C        8.07556804      13.85920950       0.00000000
C        8.06921712      15.26618048       0.00000000
C        9.06805092      15.98253243       0.00000000
C        9.30109870      17.36134656       0.00000000
C        7.91882371      18.03084117       0.00000000
C        7.97294696      19.87472838       0.00000000
C        9.48223240      20.27150591       0.00000000
C        9.70323413       0.12767269       0.00000000
C       10.64199529       1.04044304       0.00000000
C       10.63755215       2.30622848       0.00000000
C       11.99499380       3.75014246       0.00000000
C       11.40440012       4.46297286       0.00000000
C       11.00918935       5.54214005       0.00000000
C       10.42580968       6.44037553       0.00000000
C       11.81476001       7.69517142       0.00000000
C       11.79533228       8.88791661       0.00000000
C       10.52470699       9.53065440       0.00000000
C       10.81701973      10.83914148       0.00000000
C       11.86981831      11.93552203       0.00000000
C       11.67735475      13.08699216       0.00000000
C       10.59403007      13.67516527       0.00000000
C       10.45829746      15.48691993       0.00000000
C       12.19378220      15.84492164       0.00000000
C       11.57190705      17.05574775       0.00000000
C       10.63693604      18.04907144       0.00000000
C       10.50794991      19.35039903       0.00000000
C       11.45039272      20.36652271       0.00000000
C       12.06084664       0.22747958       0.00000000
C       13.37009606       0.96010963       0.00000000
C       13.23158687       2.36300897       0.00000000
C       14.54001020       3.40857736       0.00000000
C       13.83370944       5.08689411       0.00000000
C       12.69816664       5.03493961       0.00000000
C       13.25054288       6.57765701       0.00000000
C       14.01865270       7.26586155       0.00000000
C       14.37855433       8.61183073       0.00000000
C       13.08761268       9.22698390       0.00000000
C       12.94886982      11.00091772       0.00000000
C       14.51574216      11.47566495       0.00000000
C       14.30527709      12.93901554       0.00000000
C       12.94347221      13.77315662       0.00000000
C       12.83595049      15.17540980       0.00000000
C       14.06229157      16.05334003       0.00000000
C       13.85637913      17.35569966       0.00000000
C       12.74942178      18.21405008       0.00000000
C       12.97301178      19.71920915       0.00000000
C       14.21185392      20.31067231       0.00000000
C       14.43054670       0.01885172       0.00000000
C       15.54057792       0.79361931       0.00000000
C       15.61881081       2.33285895       0.00000000
C       16.71385683       2.94289491       0.00000000
C       17.00422471       4.31602676       0.00000000
C       15.55857901       5.28494499       0.00000000
C       15.21732472       6.83773272       0.00000000
C       16.86421735       7.69840999       0.00000000
C       16.65280890       8.92844151       0.00000000
C       15.65953468       9.72181982       0.00000000
C       15.50043243      11.11976437       0.00000000
C       16.55288195      11.62128968       0.00000000
C       16.55582160      13.05202469       0.00000000
C       15.22536707      14.01498762       0.00000000
C       15.30749117      15.23353267       0.00000000
C       16.36590468      16.13369547       0.00000000
C       16.30970812      17.56702618       0.00000000
C       15.22434517      18.31168810       0.00000000
C       15.37369714      19.58607222       0.00000000
C       16.53095433      20.36319100       0.00000000
C       16.74141699       0.53110609       0.00000000
C       17.88556812       0.98438939       0.00000000
C       18.02712029       2.39280983       0.00000000
C       19.42599835       3.14813604       0.00000000
C       19.35476177       4.50251355       0.00000000
C       18.08663143       5.39697914       0.00000000
C       17.99053290       6.87851219       0.00000000
C       19.31756822       7.49841160       0.00000000
C       19.17634399       8.82228464       0.00000000
C       17.99975095       9.72205622       0.00000000
C       17.97154971      10.90182132       0.00000000
C       19.18246633      11.67575704       0.00000000
C       19.31290596      13.35574619       0.00000000
C       17.66713185      14.06395552       0.00000000
C       17.63958851      15.50006102       0.00000000
C       19.23479803      16.07617968       0.00000000
C       19.06839949      17.61079538       0.00000000
C       17.88842454      18.08206260       0.00000000
C       17.63681771      19.56447863       0.00000000
C       18.85769413      20.60406764       0.00000000
C       19.29497228       0.27806797       0.00000000
C       20.92965655       0.48735620       0.00000000
C       20.31824367       2.17631069       0.00000000
C       21.46647445       2.95362881       0.00000000
C       21.79216417       4.44012415       0.00000000
C       20.76825119       5.16086903       0.00000000
C       20.33444649       6.47554179       0.00000000
C       21.38532674       7.49823248       0.00000000
C       22.15007906       9.04928475       0.00000000
C       20.44708808       9.55166987       0.00000000
C       20.70558446      11.13662147       0.00000000
C       21.81679564      11.24353575       0.00000000
C       21.74194508      13.12386259       0.00000000
C       20.66396152      13.64900951       0.00000000
C       20.20981379      15.11522131       0.00000000
C       21.36269335      16.22779739       0.00000000
C       21.84760238      17.45262130       0.00000000
C       20.53497026      18.25084796       0.00000000
C       20.19704940      19.48261910       0.00000000
C       22.37146945      19.78693239       0.00000000
C       21.72670460       0.21747271       0.00000000
