180
Lattice="22.14 0.0 0.0 0.0 21.304224933097192 0.0 0.0 0.0 12.0" Properties=species:S:1:pos:R:3 pbc="T T T"
C        1.56458528      -0.07058251       0.00000000
C        1.46472395       1.45666770       0.00000000
C        2.53535281       2.26600169       0.00000000
C        2.62048463       3.51580479       0.00000000
C        1.51215299       4.21252012       0.00000000
C        1.63169033       5.57752185       0.00000000
C        2.78021040       6.29874275       0.00000000
C        2.93652354       7.56741199       0.00000000
C        1.77426838       8.27466794       0.00000000
C        1.74253566       9.71077547       0.00000000
C        2.88180716      10.46871159       0.00000000
C        2.78007264      11.83408635       0.00000000
C        1.59322331      12.70805111       0.00000000
C        1.11085270      14.34546771       0.00000000
C        2.07264162      15.31789478       0.00000000
C        1.84732574      16.74133348       0.00000000
C        0.61558510      17.60691881       0.00000000
C        0.50304527      18.87427499       0.00000000
C        1.78880884      19.62614430       0.00000000
C        1.93328522      21.08282981       0.00000000
C        3.81948434       0.11771400       0.00000000
C        3.74660687       1.53587424       0.00000000
C        4.86722287       2.27026249       0.00000000
C        4.97149587       3.54250129       0.00000000
C        3.79671856       4.25072036       0.00000000
C        3.90388304       5.57851145       0.00000000
C        5.07534105       6.30301047       0.00000000
C        5.32029438       7.59597469       0.00000000
C        4.07938052       8.25090248       0.00000000
C        4.02543074       9.65433365       0.00000000
C        5.19335171      10.45697075       0.00000000
C        5.08658017      11.86444403       0.00000000
C        3.85459899      12.74335037       0.00000000
C        3.27961139      14.38438154       0.00000000
C        4.38676032      15.30481978       0.00000000
C        4.12733485      16.74489953       0.00000000
C        2.92628345      17.56610326       0.00000000
C        2.86902381      18.89312351       0.00000000
C        4.08535012      19.63115729       0.00000000
C        4.19970178      21.02612839       0.00000000
C        6.18304146       0.22233296       0.00000000
C        6.12402475       1.58520536       0.00000000
C        7.28491219       2.30269031       0.00000000
C        7.41939810       3.59832041       0.00000000
C        6.19735656       4.27550906       0.00000000
C        6.28487137       5.61264219       0.00000000
C        7.49368217       6.31290219       0.00000000
C        7.77024714       7.61756985       0.00000000
C        6.51971902       8.31556118       0.00000000
C        6.41394682       9.71310161       0.00000000
C        7.64547827      10.44662023       0.00000000
C        7.53427909      11.86430374       0.00000000
C        6.24170799      12.73579003       0.00000000
C        5.68891340      14.40799722       0.00000000
C        6.80545523      15.36313939       0.00000000
C        6.57356151      16.80010003       0.00000000
C        5.27340439      17.55929195       0.00000000
C        5.25670703      18.92815085       0.00000000
C        6.49678775      19.64484849       0.00000000
C        6.69656323      21.03302514       0.00000000
C        8.65372388       0.23131441       0.00000000
C        8.57388800       1.58997833       0.00000000
C        9.73583683       2.35080409       0.00000000
C        9.85529031       3.62505535       0.00000000
C        8.65501942       4.31942963       0.00000000
C        8.75211108       5.65950728       0.00000000
C        9.99656637       6.33275472       0.00000000
C       10.22090375       7.62943485       0.00000000
C        8.95277321       8.34219477       0.00000000
C        8.88617781       9.71951191       0.00000000
C       10.08313930      10.48677313       0.00000000
C        9.98788881      11.88172010       0.00000000
C        8.70744164      12.74100272       0.00000000
C        8.09544275      14.47335801       0.00000000
C        9.22971453      15.40078654       0.00000000
C        8.97298638      16.81630642       0.00000000
C        7.70243851      17.59262058       0.00000000
C        7.68157788      18.94385621       0.00000000
C        8.97151330      19.64087162       0.00000000
C        9.09824176      21.02029498       0.00000000
C       11.10131193       0.23420242       0.00000000
C       11.01290791       1.61853790       0.00000000
C       12.20490353       2.33692691       0.00000000
C       12.30545312       3.63861635       0.00000000
C       11.12197139       4.30545138       0.00000000
C       11.21519883       5.64953615       0.00000000
C       12.43980180       6.39250863       0.00000000
C       12.67548893       7.65385212       0.00000000
C       11.43501355       8.34848440       0.00000000
C       11.30405143       9.74657569       0.00000000
C       12.52367091      10.51884002       0.00000000
C       12.42952812      11.89600780       0.00000000
C       11.16343523      12.80407741       0.00000000
C       10.54747143      14.48732162       0.00000000
C       11.70805975      15.39399077       0.00000000
C       11.45339868      16.82618052       0.00000000
C       10.16503082      17.61033667       0.00000000
C       10.13138485      18.92446062       0.00000000
C       11.37516043      19.61754828       0.00000000
C       11.54625421      20.96306651       0.00000000
C       13.49594348       0.19795024       0.00000000
C       13.47335744       1.59590790       0.00000000
C       14.64833624       2.31765217       0.00000000
C       14.73952179       3.62104403       0.00000000
C       13.56342548       4.35236891       0.00000000
C       13.66938317       5.70367381       0.00000000
C       14.88878811       6.42359965       0.00000000
C       15.11281027       7.72717740       0.00000000
C       13.84785094       8.36960133       0.00000000
C       13.76965650       9.77309864       0.00000000
C       14.98286227      10.55967254       0.00000000
C       14.87016128      11.93339873       0.00000000
C       13.58801325      12.83716109       0.00000000
C       12.97526868      14.51407652       0.00000000
C       14.14488476      15.39697923       0.00000000
C       13.87363011      16.84178919       0.00000000
C       12.59717865      17.64763402       0.00000000
C       12.57309509      18.96396160       0.00000000
C       13.84900139      19.66591576       0.00000000
C       14.03691960      20.98445776       0.00000000
C       15.99484427       0.26353497       0.00000000
C       15.91196691       1.66592757       0.00000000
C       17.09096344       2.38035773       0.00000000
C       17.20465351       3.68567229       0.00000000
C       15.99967489       4.35243306       0.00000000
C       16.10379309       5.69926557       0.00000000
C       17.30771017       6.46033411       0.00000000
C       17.55531860       7.74182929       0.00000000
C       16.30134868       8.46631307       0.00000000
C       16.22001616       9.82298082       0.00000000
C       17.42183841      10.54949079       0.00000000
C       17.33684651      11.94517022       0.00000000
C       16.04211376      12.83026030       0.00000000
C       15.44594044      14.53534485       0.00000000
C       16.64088518      15.44148721       0.00000000
C       16.32681893      16.88295826       0.00000000
C       15.03902502      17.64518544       0.00000000
C       15.02770326      18.96506956       0.00000000
C       16.28619598      19.63195139       0.00000000
C       16.48923286      20.93808100       0.00000000
C       18.37325662       0.27116995       0.00000000
C       18.33802040       1.64335009       0.00000000
C       19.49177186       2.42464754       0.00000000
C       19.62467327       3.70007527       0.00000000
C       18.46192084       4.40161500       0.00000000
C       18.55265251       5.78002570       0.00000000
C       19.77539839       6.48828325       0.00000000
C       19.98570337       7.73945653       0.00000000
C       18.74578146       8.46544432       0.00000000
C       18.67600455       9.82657688       0.00000000
C       19.89481350      10.58857716       0.00000000
C       19.83832615      11.97054258       0.00000000
C       18.52027278      12.83835279       0.00000000
C       17.89472339      14.53910522       0.00000000
C       19.04865339      15.50318924       0.00000000
C       18.77953802      16.91999164       0.00000000
C       17.51834760      17.66565594       0.00000000
C       17.47038488      18.96795342       0.00000000
C       18.76756320      19.66370535       0.00000000
C       18.93275810      20.97698385       0.00000000
C       20.71040736       0.33357621       0.00000000
C       20.75616037       1.69334099       0.00000000
C       21.99619780       2.49676897       0.00000000
C       22.10785951       3.59788774       0.00000000
C       20.87145133       4.40104691       0.00000000
C       20.96138384       5.81321870       0.00000000
C       22.25581831       6.49437481       0.00000000
C       22.17973699       7.66404896       0.00000000
C       21.07398043       8.55411082       0.00000000
C       21.09224242       9.89990957       0.00000000
C       22.30523358      10.75132994       0.00000000
C       21.65728519      12.10205477       0.00000000
C       20.75041467      13.02898263       0.00000000
C       20.27993433      14.55650262       0.00000000
C       21.32113026      15.55706372       0.00000000
C       21.20030147      16.98152789       0.00000000
C       19.92747484      17.68449974       0.00000000
C       19.92816916      18.97871964       0.00000000
C       21.18644301      19.69963869       0.00000000
C       21.09387358      21.16371701       0.00000000
