180
Lattice="22.14 0.0 0.0 0.0 21.304224933097192 0.0 0.0 0.0 12.0" Properties=species:S:1:pos:R:3 pbc="T T T"
C        1.20832728       0.41136406       0.00000000
C        0.91475791       1.87107495       0.00000000
C        2.23685218       2.36804724       0.00000000
C        2.24349076       3.71117360       0.00000000
C        1.02485218       4.32552250       0.00000000
C        0.95764585       6.04948451       0.00000000
C        2.44266724       6.50344351       0.00000000
C        2.42120264       7.94550028       0.00000000
C        0.99463670       8.26150883       0.00000000
C        1.08255654      10.14437100       0.00000000
C        2.48492669      10.75040883       0.00000000
C        2.40042135      12.20694636       0.00000000
C        0.97978762      12.79914396       0.00000000
C        0.73126087      14.71644991       0.00000000
C        1.62635587      15.68650219       0.00000000
C        1.27195127      17.14418120       0.00000000
C        0.21132366      18.25993852       0.00000000
C        0.88920947      19.71435938       0.00000000
C        2.49975546      19.43584902       0.00000000
C        1.35484978      21.10385501       0.00000000
C        3.54426141       0.38653456       0.00000000
C        3.44820063       1.69543066       0.00000000
C        4.51484991       2.45503914       0.00000000
C        4.68599105       3.68546058       0.00000000
C        3.50373420       4.35994943       0.00000000
C        3.57628186       5.73913111       0.00000000
C        4.77885303       6.52371702       0.00000000
C        5.02472452       7.80528888       0.00000000
C        3.75908392       8.42729824       0.00000000
C        3.70723989       9.90306876       0.00000000
C        4.87095038      10.76979619       0.00000000
C        4.81608293      12.18962704       0.00000000
C        3.48555292      13.04438278       0.00000000
C        2.91377250      14.74276003       0.00000000
C        3.95283083      15.47570161       0.00000000
C        4.02707964      16.02197570       0.00000000
C        3.75476044      17.18821326       0.00000000
C        2.48261029      17.93468517       0.00000000
C        4.81706016      19.43864002       0.00000000
C        3.75187986      20.93497104       0.00000000
C        5.93412406       0.46282909       0.00000000
C        5.74784116       1.78469415       0.00000000
C        6.92812867       2.42866043       0.00000000
C        7.10594166       3.73886960       0.00000000
C        5.91578785       4.40623274       0.00000000
C        5.98157888       5.78102407       0.00000000
C        7.19731858       6.53229770       0.00000000
C        7.48932860       7.83939518       0.00000000
C        6.22258210       8.57161456       0.00000000
C        6.10605182      10.00750619       0.00000000
C        7.33656292      10.76374071       0.00000000
C        7.31867803      12.18200491       0.00000000
C        6.06522582      12.81068821       0.00000000
C        5.68334599      13.68841778       0.00000000
C        6.54327054      15.66244012       0.00000000
C        5.38116946      14.91068373       0.00000000
C        6.30504426      17.15498050       0.00000000
C        4.96197511      17.92572246       0.00000000
C        7.26746951      19.42104674       0.00000000
C        6.25611921      20.83832059       0.00000000
C        8.37958957       0.41221134       0.00000000
C        8.26293920       1.75260454       0.00000000
C        9.48434765       2.52581338       0.00000000
C        9.54736626       3.78047833       0.00000000
C        8.36155060       4.49668265       0.00000000
C        8.48158491       5.87181246       0.00000000
C        9.75317758       6.54962962       0.00000000
C        9.95705738       7.84800300       0.00000000
C        8.67092378       8.60928656       0.00000000
C        8.61283979       9.98790916       0.00000000
C        9.78644068      10.79633456       0.00000000
C        9.84582063      12.19748531       0.00000000
C        8.70880926      12.70402002       0.00000000
C        8.17830188      13.38882234       0.00000000
C        7.83906291      14.83322498       0.00000000
C        8.96998679      15.71800299       0.00000000
C        8.76528198      17.18075204       0.00000000
C        7.44959771      17.93504212       0.00000000
C        9.79786360      19.43486572       0.00000000
C        8.71837782      20.83135008       0.00000000
C       10.91229265       0.33083786       0.00000000
C       10.78496644       1.74267502       0.00000000
C       11.99906980       2.50851614       0.00000000
C       12.05444625       3.79458295       0.00000000
C       10.88241783       4.47152372       0.00000000
C       10.95970992       5.86751405       0.00000000
C       12.25382733       6.63300430       0.00000000
C       12.45104117       7.86799946       0.00000000
C       11.19532811       8.58765165       0.00000000
C       11.05098274      10.03044905       0.00000000
C       12.30712796      10.80858043       0.00000000
C       12.33752625      12.22449009       0.00000000
C       11.11895382      12.81088745       0.00000000
C       10.61922108      13.61896280       0.00000000
C       10.33629783      14.93370999       0.00000000
C       11.46646404      15.72540955       0.00000000
C       11.24170752      17.18042223       0.00000000
C        9.94113180      17.99669359       0.00000000
C       12.16941131      19.48237055       0.00000000
C       11.20648386      20.96611256       0.00000000
C       13.43031384       0.31254476       0.00000000
C       13.27183499       1.71743489       0.00000000
C       14.53493963       2.44672636       0.00000000
C       14.53529099       3.78769015       0.00000000
C       13.40911377       4.52569526       0.00000000
C       13.42649165       5.95052842       0.00000000
C       14.75257003       6.65991593       0.00000000
C       14.89417943       7.95050839       0.00000000
C       13.60728739       8.61400191       0.00000000
C       13.56941244      10.04991483       0.00000000
C       14.80445308      10.87586040       0.00000000
C       14.81628125      12.23304534       0.00000000
C       13.61578786      12.84396982       0.00000000
C       13.12440707      13.61224673       0.00000000
C       12.81273055      14.94883877       0.00000000
C       13.93762933      15.70452890       0.00000000
C       13.74124604      17.19372045       0.00000000
C       12.41811218      18.01250072       0.00000000
C       14.73789351      19.48840005       0.00000000
C       13.72923168      21.00621198       0.00000000
C       15.89645673       0.33495405       0.00000000
C       15.78068775       1.74930724       0.00000000
C       16.99824407       2.48211966       0.00000000
C       17.04041324       3.80326623       0.00000000
C       15.90198448       4.52074594       0.00000000
C       15.94828256       5.92391950       0.00000000
C       17.28043419       6.74528505       0.00000000
C       17.40376258       8.01609453       0.00000000
C       16.11994799       8.72565283       0.00000000
C       16.09015043      10.11244502       0.00000000
C       17.31017595      10.88337174       0.00000000
C       17.04453396      12.28603045       0.00000000
C       15.85983921      13.14813465       0.00000000
C       15.32035100      14.85434907       0.00000000
C       17.82886265      14.89177805       0.00000000
C       16.51309392      15.76582695       0.00000000
C       16.25673990      17.27550998       0.00000000
C       14.93363333      18.01696316       0.00000000
C       17.23568901      19.48220852       0.00000000
C       16.21277904      20.96220905       0.00000000
C       18.37787766       0.35989697       0.00000000
C       18.27851243       1.74659081       0.00000000
C       19.50237873       2.53341474       0.00000000
C       19.55645036       3.84237562       0.00000000
C       18.40257403       4.55300754       0.00000000
C       18.49212377       5.99646905       0.00000000
C       19.78272651       6.74358022       0.00000000
C       19.88923839       8.01673886       0.00000000
C       18.63453701       8.71330330       0.00000000
C       18.61261237      10.08683229       0.00000000
C       19.86073774      10.95101327       0.00000000
C       19.63908538      12.37721494       0.00000000
C       17.86638557      12.43638040       0.00000000
C       18.38768305      13.31536006       0.00000000
C       20.32785439      15.08296744       0.00000000
C       18.94283290      15.77621450       0.00000000
C       18.70794612      17.26893906       0.00000000
C       17.48602334      18.08900251       0.00000000
C       19.77795439      19.54108279       0.00000000
C       18.80835298      21.09469919       0.00000000
C       20.83621439       0.50648798       0.00000000
C       20.80271816       1.74649714       0.00000000
C       21.83381801       2.45030620       0.00000000
C       21.84314242       3.77946786       0.00000000
C       20.89913628       4.61282843       0.00000000
C       20.97470601       5.98163559       0.00000000
C       22.02098564       6.32125759       0.00000000
C       21.86434778       7.93857144       0.00000000
C       21.06743661       8.77278189       0.00000000
C       21.02496329      10.11475816       0.00000000
C       21.81298663      11.04097119       0.00000000
C       21.78221412      12.60559931       0.00000000
C       20.65626263      12.68164038       0.00000000
C       20.67067905      13.64419007       0.00000000
C       21.82928480      15.90394824       0.00000000
C       21.83719912      15.42442127       0.00000000
C       21.19504135      17.36268430       0.00000000
C       19.89364272      18.10366953       0.00000000
C       21.82345450      19.89167073       0.00000000
C       21.81158566      21.22939872       0.00000000
