180
Lattice="22.14 0.0 0.0 0.0 21.304224933097192 0.0 0.0 0.0 12.0" Properties=species:S:1:pos:R:3 pbc="T T T"
C        1.54821545      -0.04676551       0.00000000
C        1.45537269       1.50044873       0.00000000
C        2.53207788       2.27326407       0.00000000
C        2.59531214       3.53997764       0.00000000
C        1.51096903       4.23055744       0.00000000
C        1.62169137       5.58526304       0.00000000
C        2.75511229       6.29455094       0.00000000
C        2.89757308       7.56725164       0.00000000
C        1.77339774       8.28559618       0.00000000
C        1.71133707       9.69726002       0.00000000
C        2.83189182      10.45986094       0.00000000
C        2.73950647      11.81794067       0.00000000
C        1.58702339      12.71647477       0.00000000
C        1.11917240      14.29985704       0.00000000
C        2.07190913      15.28526529       0.00000000
C        1.81929456      16.70925101       0.00000000
C        0.62365390      17.58947174       0.00000000
C        0.50736515      18.84764565       0.00000000
C        1.77231151      19.56867706       0.00000000
C        1.93392693      21.02575992       0.00000000
C        3.73866712       0.09921919       0.00000000
C        3.70655808       1.54906516       0.00000000
C        4.86244665       2.27683116       0.00000000
C        4.91182952       3.56963600       0.00000000
C        3.78106277       4.26059510       0.00000000
C        3.88223078       5.58548000       0.00000000
C        5.06344634       6.30279231       0.00000000
C        5.29686223       7.59421405       0.00000000
C        4.06920323       8.24159141       0.00000000
C        3.98210618       9.64239440       0.00000000
C        5.14105723      10.44600936       0.00000000
C        5.07269830      11.82441212       0.00000000
C        3.85875556      12.70122348       0.00000000
C        3.25084435      14.35641822       0.00000000
C        4.36452634      15.29839150       0.00000000
C        4.09231228      16.72780192       0.00000000
C        2.89577815      17.56481129       0.00000000
C        2.86210263      18.87490301       0.00000000
C        4.06204300      19.57455304       0.00000000
C        4.20890499      20.95261046       0.00000000
C        6.13963977       0.21484195       0.00000000
C        6.09685194       1.61072410       0.00000000
C        7.27631937       2.31030662       0.00000000
C        7.38168561       3.62460353       0.00000000
C        6.17180858       4.27616722       0.00000000
C        6.26599756       5.62589312       0.00000000
C        7.46277321       6.32137777       0.00000000
C        7.73393043       7.62805284       0.00000000
C        6.49524486       8.32190926       0.00000000
C        6.36364205       9.70459143       0.00000000
C        7.61228491      10.43259753       0.00000000
C        7.50123553      11.84490401       0.00000000
C        6.21939449      12.78589951       0.00000000
C        5.65629720      14.45005041       0.00000000
C        6.78850286      15.35353719       0.00000000
C        6.53734847      16.78242507       0.00000000
C        5.25656551      17.55314433       0.00000000
C        5.24989385      18.91030415       0.00000000
C        6.47534044      19.60595168       0.00000000
C        6.69142941      21.01230912       0.00000000
C        8.63034100       0.23603771       0.00000000
C        8.52348819       1.61222367       0.00000000
C        9.71706032       2.35790463       0.00000000
C        9.80545112       3.65274177       0.00000000
C        8.61570864       4.32321593       0.00000000
C        8.71653859       5.67024983       0.00000000
C        9.95774843       6.32719304       0.00000000
C       10.16555765       7.62608323       0.00000000
C        8.92045737       8.35039307       0.00000000
C        8.83906397       9.71505986       0.00000000
C       10.03351302      10.46670405       0.00000000
C        9.96186971      11.85237946       0.00000000
C        8.71766738      12.71757888       0.00000000
C        8.05382406      14.46697532       0.00000000
C        9.20340320      15.38839274       0.00000000
C        8.93462627      16.82149330       0.00000000
C        7.67747360      17.55659748       0.00000000
C        7.66464203      18.92283617       0.00000000
C        8.93832895      19.59167805       0.00000000
C        9.13976080      20.97462870       0.00000000
C       11.05853287       0.25134742       0.00000000
C       10.96187633       1.62974741       0.00000000
C       12.17365250       2.34047850       0.00000000
C       12.25953621       3.65199185       0.00000000
C       11.07875639       4.30820286       0.00000000
C       11.16103035       5.66241344       0.00000000
C       12.38887244       6.37371089       0.00000000
C       12.62840167       7.64589649       0.00000000
C       11.38938282       8.34925217       0.00000000
C       11.23640494       9.75075297       0.00000000
C       12.46270613      10.50004003       0.00000000
C       12.39915138      11.86077813       0.00000000
C       11.14578310      12.78390632       0.00000000
C       10.50711464      14.48459387       0.00000000
C       11.67936448      15.38257076       0.00000000
C       11.40612892      16.81690746       0.00000000
C       10.12910035      17.60166216       0.00000000
C       10.11651439      18.91936933       0.00000000
C       11.35443014      19.56911648       0.00000000
C       11.55588071      20.92397354       0.00000000
C       13.45277435       0.20513869       0.00000000
C       13.42208977       1.62319728       0.00000000
C       14.60975766       2.31736657       0.00000000
C       14.68066022       3.64221314       0.00000000
C       13.50561542       4.35780116       0.00000000
C       13.61506516       5.72250102       0.00000000
C       14.82700176       6.41880578       0.00000000
C       15.05314614       7.72548234       0.00000000
C       13.80204264       8.36058153       0.00000000
C       13.69944105       9.78217746       0.00000000
C       14.91715212      10.53492731       0.00000000
C       14.82400284      11.89167200       0.00000000
C       13.57523156      12.82319468       0.00000000
C       12.93526026      14.51105698       0.00000000
C       14.10570591      15.38221707       0.00000000
C       13.81965017      16.83036153       0.00000000
C       12.56256604      17.63437765       0.00000000
C       12.55352405      18.95931206       0.00000000
C       13.82627224      19.60217761       0.00000000
C       14.04202938      20.93872888       0.00000000
C       15.95505009       0.27642732       0.00000000
C       15.85298566       1.68172783       0.00000000
C       17.05552477       2.38749410       0.00000000
C       17.15484587       3.71336493       0.00000000
C       15.94947669       4.35741393       0.00000000
C       16.04761511       5.71394185       0.00000000
C       17.25117807       6.46385705       0.00000000
C       17.49005633       7.74516714       0.00000000
C       16.25220512       8.46134389       0.00000000
C       16.14527072       9.82914771       0.00000000
C       17.36357889      10.53555198       0.00000000
C       17.29825632      11.90473981       0.00000000
C       16.01637653      12.79406617       0.00000000
C       15.39068528      14.52138838       0.00000000
C       16.61727268      15.42839229       0.00000000
C       16.26726729      16.88036208       0.00000000
C       15.00880820      17.63682776       0.00000000
C       14.99506448      18.94519184       0.00000000
C       16.24772664      19.57350174       0.00000000
C       16.47819536      20.89820084       0.00000000
C       18.35351100       0.29007779       0.00000000
C       18.28643000       1.67909667       0.00000000
C       19.45979637       2.43316516       0.00000000
C       19.56988384       3.72109025       0.00000000
C       18.40928739       4.41696617       0.00000000
C       18.50606439       5.78110945       0.00000000
C       19.71855259       6.47391055       0.00000000
C       19.93457333       7.74698276       0.00000000
C       18.70806743       8.46164442       0.00000000
C       18.59729133       9.82325554       0.00000000
C       19.83178003      10.55305584       0.00000000
C       19.79596470      11.95997290       0.00000000
C       18.48700469      12.82222319       0.00000000
C       17.86044898      14.51623084       0.00000000
C       19.01309959      15.51783223       0.00000000
C       18.72089267      16.94842226       0.00000000
C       17.47263352      17.65635630       0.00000000
C       17.48269491      18.96429234       0.00000000
C       18.74024435      19.66540570       0.00000000
C       19.11033519      21.01745288       0.00000000
C       20.66984764       0.35339740       0.00000000
C       20.72060060       1.72394346       0.00000000
C       21.93752902       2.47646083       0.00000000
C       22.09886024       3.59730085       0.00000000
C       20.82851154       4.39407727       0.00000000
C       20.91656944       5.82816220       0.00000000
C       22.21381854       6.47134694       0.00000000
C       22.14136066       7.66893350       0.00000000
C       21.04434998       8.55305083       0.00000000
C       21.04808939       9.91767109       0.00000000
C       22.26275236      10.80305676       0.00000000
C       21.61640200      12.09750352       0.00000000
C       20.72742371      13.03710167       0.00000000
C       20.24098545      14.54773071       0.00000000
C       21.30475919      15.53751085       0.00000000
C       21.16515661      16.95180413       0.00000000
C       19.90425817      17.66748525       0.00000000
C       19.87514584      18.97385385       0.00000000
C       21.12618822      19.63730266       0.00000000
C       21.02860901      21.12860263       0.00000000
