180
Lattice="22.14 0.0 0.0 0.0 21.304224933097192 0.0 0.0 0.0 12.0" Properties=species:S:1:pos:R:3 pbc="T T T"
C        0.94045504       0.39840226       0.00000000
C        1.27279036       2.74924211       0.00000000
C        2.48201197       2.75216116       0.00000000
C        3.52881342       5.18022187       0.00000000
C        0.29240767       5.42241324       0.00000000
C        1.80521419       7.30942721       0.00000000
C        2.79304811       8.22209949       0.00000000
C        2.67100195       7.87014402       0.00000000
C        0.71370766       8.81319041       0.00000000
C        1.00889126      11.35777742       0.00000000
C        1.90627781      11.19338297       0.00000000
C        1.29356007      11.80079425       0.00000000
C        0.49647250      13.26920166       0.00000000
C        1.16188416      14.37094523       0.00000000
C        1.94627209      14.54725090       0.00000000
C        1.27658050      17.21404545       0.00000000
C        0.76906218      16.58661538       0.00000000
C        1.21120928      19.58064446       0.00000000
C        1.38837150      20.12654276       0.00000000
C        0.29454977      20.70763364       0.00000000
C        3.23070581       0.81944197       0.00000000
C        3.20407577       1.28770392       0.00000000
C        5.19582482       1.24922709       0.00000000
C        4.63688097       2.82084090       0.00000000
C        3.87578929       4.03423652       0.00000000
C        3.94083195       6.27488513       0.00000000
C        4.25152287       6.03519963       0.00000000
C        4.86499725       8.79873430       0.00000000
C        4.72129909       6.97294433       0.00000000
C        3.75649231      11.25625628       0.00000000
C        5.20793721      11.96708325       0.00000000
C        4.86805486      11.78779691       0.00000000
C        2.37518956      14.60194143       0.00000000
C        3.30785132      14.37908551       0.00000000
C        3.41625249      14.39749227       0.00000000
C        3.89567182      14.39776416       0.00000000
C        1.92422088      17.03357239       0.00000000
C        3.80552948      17.50098579       0.00000000
C        4.36533005      19.99654169       0.00000000
C        2.99707371      20.68679159       0.00000000
C        5.19872781       0.66325415       0.00000000
C        5.18960753       1.80063611       0.00000000
C        5.32707410       2.90109274       0.00000000
C        5.63889018       3.51429069       0.00000000
C        5.35046050       4.04477398       0.00000000
C        5.62867818       6.08696897       0.00000000
C        6.81984193       5.77041740       0.00000000
C        6.44487944       8.55878953       0.00000000
C        5.90479914       9.01665194       0.00000000
C        5.86005474      11.15345122       0.00000000
C        7.05910187      10.90468964       0.00000000
C        7.29751251      13.32130134       0.00000000
C        5.85133126      14.25581389       0.00000000
C        4.87579029      14.25508787       0.00000000
C        6.67648041      13.73665462       0.00000000
C        5.71863261      15.00614660       0.00000000
C        5.28590683      16.52397681       0.00000000
C        6.75825726      17.20005005       0.00000000
C        7.24261990      18.61259031       0.00000000
C        6.07962063      21.00219031       0.00000000
C        7.04193561      -0.15760032       0.00000000
C        7.48556154       2.94098247       0.00000000
C        8.10336697       2.76431490       0.00000000
C        8.35126692       3.05956169       0.00000000
C        7.47135852       5.52503133       0.00000000
C        7.42770609       6.32345589       0.00000000
C        8.11631872       8.09377904       0.00000000
C        8.96672511       8.45230540       0.00000000
C        8.32299394       8.87801250       0.00000000
C        7.71938702      11.26973280       0.00000000
C        9.01465371      11.34352785       0.00000000
C        9.53085721      11.76063694       0.00000000
C        7.72739338      14.23165282       0.00000000
C        8.13151883      14.00018924       0.00000000
C       10.06272058      14.29714241       0.00000000
C        9.07864105      15.01323142       0.00000000
C        9.00285249      16.46118313       0.00000000
C        9.18281271      17.03853387       0.00000000
C        9.96339830      19.82425250       0.00000000
C        6.52057548      23.06718753       0.00000000
C        9.77430503      -0.15723342       0.00000000
C        9.72996974       3.20383286       0.00000000
C       10.14501929       3.35039364       0.00000000
C       10.21562556       3.40071707       0.00000000
C        9.39856950       5.88110486       0.00000000
C        9.32305464       6.01322596       0.00000000
C       10.02559863       6.71717861       0.00000000
C       10.80216423       8.98222501       0.00000000
C        8.88000317       9.32885759       0.00000000
C        9.73986920      11.80546860       0.00000000
C       11.27392553      11.41441575       0.00000000
C       12.18874852      11.44757853       0.00000000
C        9.86164995      11.94623676       0.00000000
C       10.49596777      13.98622589       0.00000000
C       11.43719807      14.58277751       0.00000000
C       10.20369214      15.11542087       0.00000000
C       12.43423373      17.43016305       0.00000000
C       10.45714323      17.51927164       0.00000000
C       10.70843877      19.24451156       0.00000000
C       12.63668077      23.05300658       0.00000000
C       11.23629468      -0.15338737       0.00000000
C       11.31654120       2.70701454       0.00000000
C       12.65625655       2.80309616       0.00000000
C       12.91588589       5.07403487       0.00000000
C       11.85250562       5.63427069       0.00000000
C       10.83374073       6.15928528       0.00000000
C       13.13559735       8.22260823       0.00000000
C       13.60623389       8.14614889       0.00000000
C       11.42934977       9.22887437       0.00000000
C       12.69784575      11.39746948       0.00000000
C       13.17820942      11.50804384       0.00000000
C       13.05620254      11.80628654       0.00000000
C       12.61371347      11.79293529       0.00000000
C       13.05407762      14.70778606       0.00000000
C       12.96616935      14.57451098       0.00000000
C       12.94490312      14.75397819       0.00000000
C       12.85557895      17.16366637       0.00000000
C       11.93051518      17.66996672       0.00000000
C       13.54839529      20.12033890       0.00000000
C       13.62489425      20.57478575       0.00000000
C       13.91922674       0.91238647       0.00000000
C       15.37652904       3.13478345       0.00000000
C       16.64105153       1.54406573       0.00000000
C       17.66531315       3.21577399       0.00000000
C       14.99471336       4.45038623       0.00000000
C       14.36112304       7.13704434       0.00000000
C       16.15924551       6.32489894       0.00000000
C       16.14563414       9.00831578       0.00000000
C       15.37800330       9.09748410       0.00000000
C       15.50703043      10.32580136       0.00000000
C       15.73741143      11.82631882       0.00000000
C       15.55064463      11.43968416       0.00000000
C       14.78634759      11.69467936       0.00000000
C       14.20354949      14.30793396       0.00000000
C       15.72550430      14.00073694       0.00000000
C       17.45174881      17.26333811       0.00000000
C       15.46456325      17.28480162       0.00000000
C       15.61128002      17.17857856       0.00000000
C       17.45771125      20.17044742       0.00000000
C       17.06840774      20.87347132       0.00000000
C       18.71670989      -0.15183730       0.00000000
C       18.32215747       3.25353851       0.00000000
C       20.58764817       1.78970878       0.00000000
C       20.26048860       3.58487102       0.00000000
C       19.59074893       3.84939122       0.00000000
C       18.11944265       6.51304777       0.00000000
C       20.27421014       6.20442393       0.00000000
C       18.74847629       8.64150457       0.00000000
C       17.74017416       8.99946421       0.00000000
C       16.88581095      11.71716695       0.00000000
C       18.61404268      11.90006058       0.00000000
C       18.59861417      11.94045753       0.00000000
C       15.89034820      14.66907114       0.00000000
C       16.57275943      14.29665302       0.00000000
C       18.38348224      14.80576720       0.00000000
C       20.03731263      17.60681123       0.00000000
C       15.63412422      17.18339524       0.00000000
C       17.53881024      20.12214712       0.00000000
C       20.16577494      20.12366342       0.00000000
C       19.02072957      20.70049404       0.00000000
C       20.57004650       1.62239942       0.00000000
C       20.56728536       1.56010761       0.00000000
C       21.22777989       1.76381409       0.00000000
C       21.31015665       2.73497753       0.00000000
C       20.58565049       2.32499768       0.00000000
C       20.69579032       4.99556214       0.00000000
C       21.39350563       5.43176654       0.00000000
C       21.48664447       5.96122005       0.00000000
C       19.90709970       8.99403624       0.00000000
C       19.57792217      10.66319146       0.00000000
C       23.87385240       9.31485425       0.00000000
C       23.20797502      13.34020714       0.00000000
C       20.63217546      12.08185794       0.00000000
C       20.59758802      15.21356988       0.00000000
C       22.27431751      13.93056136       0.00000000
C       21.33325060      18.02267471       0.00000000
C       20.03896043      17.78390275       0.00000000
C       20.67933091      20.12132787       0.00000000
C       21.35068966      19.21785553       0.00000000
C       23.56407239      22.92338557       0.00000000
