180
Lattice="21.705882352941178 0.0 0.0 0.0 20.886495032448227 0.0 0.0 0.0 11.76470588235294" Properties=species:S:1:pos:R:3 pbc="T T T"
C        1.16381874       0.05218860       0.00000000
C        1.08015924       1.60695932       0.00000000
C        2.14170299       2.36862855       0.00000000
C        2.21602642       3.64444322       0.00000000
C        1.11720453       4.33031473       0.00000000
C        1.23936203       5.68778745       0.00000000
C        2.37173666       6.40174289       0.00000000
C        2.52126612       7.67636731       0.00000000
C        1.38948394       8.38141408       0.00000000
C        1.32903663       9.79832573       0.00000000
C        2.43633281      10.55882948       0.00000000
C        2.36284246      11.91718593       0.00000000
C        1.20214571      12.79467763       0.00000000
C        0.72621054      14.38884731       0.00000000
C        1.68553872      15.36885167       0.00000000
C        1.45529443      16.77012109       0.00000000
C        0.37387143      17.68201903       0.00000000
C        0.06568808      18.93374666       0.00000000
C        1.38039697      19.65208479       0.00000000
C        1.57963074      21.10357545       0.00000000
C        3.34140092       0.19200208       0.00000000
C        3.32575048       1.65731343       0.00000000
C        4.47483533       2.37561303       0.00000000
C        4.52945395       3.67186285       0.00000000
C        3.38550241       4.35684343       0.00000000
C        3.49314123       5.68712203       0.00000000
C        4.68089662       6.40521795       0.00000000
C        4.91216680       7.70009074       0.00000000
C        3.68509313       8.34852376       0.00000000
C        3.60505582       9.74983662       0.00000000
C        4.76127060      10.54631566       0.00000000
C        4.68489997      11.92458537       0.00000000
C        3.47404182      12.79186994       0.00000000
C        2.86473636      14.45413866       0.00000000
C        3.97610136      15.39757179       0.00000000
C        3.69718789      16.80859217       0.00000000
C        2.50091941      17.66109119       0.00000000
C        2.47830764      18.96331487       0.00000000
C        3.68559503      19.65575786       0.00000000
C        3.81581287      21.03348473       0.00000000
C        5.74446108       0.28877092       0.00000000
C        5.71156436       1.70391508       0.00000000
C        6.88150157       2.40525232       0.00000000
C        7.00377552       3.72599722       0.00000000
C        5.78135031       4.37978723       0.00000000
C        5.88482158       5.73256996       0.00000000
C        7.07353050       6.41690579       0.00000000
C        7.34997545       7.73716403       0.00000000
C        6.10216113       8.41659401       0.00000000
C        5.99184889       9.80312788       0.00000000
C        7.21770227      10.52717298       0.00000000
C        7.13729544      11.93707997       0.00000000
C        5.84314366      12.81305959       0.00000000
C        5.26690612      14.54918906       0.00000000
C        6.40220778      15.44313081       0.00000000
C        6.15056363      16.86627833       0.00000000
C        4.86208486      17.64549632       0.00000000
C        4.86783815      18.99135686       0.00000000
C        6.09404477      19.69214344       0.00000000
C        6.31655827      21.08747068       0.00000000
C        8.24434487       0.32202774       0.00000000
C        8.14007728       1.71779489       0.00000000
C        9.32890556       2.45034982       0.00000000
C        9.41739945       3.74858485       0.00000000
C        8.21963739       4.42071653       0.00000000
C        8.32606253       5.77506478       0.00000000
C        9.57724560       6.42158037       0.00000000
C        9.77739331       7.71893347       0.00000000
C        8.53658275       8.45021021       0.00000000
C        8.45330428       9.81519786       0.00000000
C        9.64625195      10.56112684       0.00000000
C        9.57541633      11.94298833       0.00000000
C        8.32916719      12.80493497       0.00000000
C        7.66691653      14.55779213       0.00000000
C        8.81468182      15.48081957       0.00000000
C        8.54945214      16.90469069       0.00000000
C        7.29329121      17.64843860       0.00000000
C        7.28318122      19.00322956       0.00000000
C        8.55040761      19.67623165       0.00000000
C        8.75041578      21.06134566       0.00000000
C       10.66868977       0.34125721       0.00000000
C       10.56986788       1.72668183       0.00000000
C       11.77376761       2.43566102       0.00000000
C       11.87056367       3.75089065       0.00000000
C       10.67868470       4.40037014       0.00000000
C       10.77462270       5.76422998       0.00000000
C       11.99040118       6.46878750       0.00000000
C       12.24580596       7.74825787       0.00000000
C       10.99248012       8.44483981       0.00000000
C       10.85183133       9.84300527       0.00000000
C       12.07180197      10.59833342       0.00000000
C       12.01006287      11.95520631       0.00000000
C       10.74977591      12.87763015       0.00000000
C       10.11897192      14.57687526       0.00000000
C       11.28878170      15.47730198       0.00000000
C       11.01484770      16.90221847       0.00000000
C        9.74077387      17.68932443       0.00000000
C        9.72964025      19.00429623       0.00000000
C       10.96889013      19.65461825       0.00000000
C       11.16482035      20.99723464       0.00000000
C       13.00502922       0.28940893       0.00000000
C       13.03347502       1.72026630       0.00000000
C       14.21853809       2.41176500       0.00000000
C       14.28875883       3.74074525       0.00000000
C       13.11372737       4.45597413       0.00000000
C       13.22608247       5.82907202       0.00000000
C       14.44038051       6.51420575       0.00000000
C       14.65916708       7.82188620       0.00000000
C       13.40882826       8.46347933       0.00000000
C       13.31285082       9.88233172       0.00000000
C       14.51982685      10.63426891       0.00000000
C       14.42910566      11.99206899       0.00000000
C       13.17935408      12.91334035       0.00000000
C       12.54742102      14.60827384       0.00000000
C       13.70917897      15.46853154       0.00000000
C       13.42788392      16.91117826       0.00000000
C       12.16744117      17.72492477       0.00000000
C       12.16858891      19.04565445       0.00000000
C       13.43590266      19.69637181       0.00000000
C       13.65934470      21.03005354       0.00000000
C       15.55419242       0.36962294       0.00000000
C       15.46617084       1.77752791       0.00000000
C       16.66266893       2.47970524       0.00000000
C       16.75258409       3.81854732       0.00000000
C       15.55009465       4.45400654       0.00000000
C       15.65441470       5.81891806       0.00000000
C       16.86249050       6.55415386       0.00000000
C       17.10505494       7.84521181       0.00000000
C       15.84940279       8.55324480       0.00000000
C       15.75623203       9.92731311       0.00000000
C       16.97558536      10.63041762       0.00000000
C       16.90265155      12.00936934       0.00000000
C       15.62293676      12.88695755       0.00000000
C       15.00332296      14.61347138       0.00000000
C       16.22792083      15.51017867       0.00000000
C       15.87805202      16.96073331       0.00000000
C       14.60834362      17.73439863       0.00000000
C       14.61147870      19.03759137       0.00000000
C       15.85560379      19.66627395       0.00000000
C       16.09817090      20.98433841       0.00000000
C       17.95496135       0.39417749       0.00000000
C       17.89553753       1.78112564       0.00000000
C       19.05542489       2.52966891       0.00000000
C       19.17566204       3.82313118       0.00000000
C       18.00828855       4.51145308       0.00000000
C       18.11665690       5.88131003       0.00000000
C       19.33910051       6.57721372       0.00000000
C       19.54307870       7.85496505       0.00000000
C       18.31549950       8.55755861       0.00000000
C       18.21277700       9.92311025       0.00000000
C       19.45065338      10.65203440       0.00000000
C       19.39654660      12.05782122       0.00000000
C       18.09971248      12.91147975       0.00000000
C       17.47022776      14.61015324       0.00000000
C       18.62328572      15.60011956       0.00000000
C       18.33300160      17.02997936       0.00000000
C       17.07535556      17.74968371       0.00000000
C       17.08705597      19.04391489       0.00000000
C       18.33863216      19.73091821       0.00000000
C       18.63128407      21.05434442       0.00000000
C       20.27055236       0.44177783       0.00000000
C       20.32641492       1.82171911       0.00000000
C       21.54036844       2.56650691       0.00000000
C       21.66186210       3.69409753       0.00000000
C       20.42094039       4.49592007       0.00000000
C       20.51935523       5.93040643       0.00000000
C       21.80765225       6.57151404       0.00000000
C       21.74263917       7.79355336       0.00000000
C       20.65210842       8.65486340       0.00000000
C       20.66073399      10.01639657       0.00000000
C       21.86851381      10.90306771       0.00000000
C       21.21166352      12.21110592       0.00000000
C       20.32812444      13.13154240       0.00000000
C       19.85810235      14.63631825       0.00000000
C       20.91168805      15.62815162       0.00000000
C       20.76772014      17.03581533       0.00000000
C       19.51207428      17.75909029       0.00000000
C       19.48529340      19.05929287       0.00000000
C       20.73525816      19.72916477       0.00000000
C       20.64022599      21.21398842       0.00000000
