180
Lattice="22.14 0.0 0.0 0.0 21.304224933097192 0.0 0.0 0.0 12.0" Properties=species:S:1:pos:R:3 pbc="T T T"
C        1.39993279       0.33230947       0.00000000
C        0.50242329       2.08542848       0.00000000
C        2.13054698       2.00178981       0.00000000
C        2.40753549       3.49655918       0.00000000
C        1.09671163       4.14958081       0.00000000
C        0.31583627       6.26311622       0.00000000
C        1.77757619       5.80396994       0.00000000
C        2.68145945       7.45014133       0.00000000
C        1.13828771       8.03643405       0.00000000
C        0.49362275      10.21347890       0.00000000
C        1.78321199       9.64981868       0.00000000
C        2.63882710      11.21943986       0.00000000
C        0.58911372      11.92668331       0.00000000
C        0.80758952      14.43514422       0.00000000
C        3.14867391      14.36713573       0.00000000
C        1.88634112      15.26502257       0.00000000
C        1.59882962      16.64666666       0.00000000
C        0.40530713      17.35683850       0.00000000
C        0.57814309      19.10380410       0.00000000
C        1.41171126      21.11387259       0.00000000
C        3.83167454       0.04089992       0.00000000
C        3.51813592       1.69716445       0.00000000
C        4.73586146       2.32135280       0.00000000
C        4.80221034       3.43766583       0.00000000
C        3.81335991       4.26586877       0.00000000
C        3.43607018       5.76502517       0.00000000
C        4.95994479       6.14626917       0.00000000
C        5.17492147       7.49081772       0.00000000
C        4.06413137       8.21033551       0.00000000
C        3.55986367       9.76615868       0.00000000
C        4.99434739      10.26060569       0.00000000
C        4.90567777      11.78440889       0.00000000
C        3.57661240      12.65342671       0.00000000
C        1.69382816      12.58641095       0.00000000
C        4.38889076      15.14679997       0.00000000
C        3.90721907      16.73340467       0.00000000
C        2.75452498      17.74475478       0.00000000
C        2.10519225      19.31083239       0.00000000
C        3.82614041      19.39660138       0.00000000
C        3.96676079      21.08935601       0.00000000
C        6.29573945       0.06781405       0.00000000
C        5.90184214       1.49462731       0.00000000
C        7.21446548       2.20467986       0.00000000
C        7.24279741       3.60494727       0.00000000
C        6.03380168       4.25431173       0.00000000
C        6.14173433       5.67049217       0.00000000
C        7.32107780       6.24420112       0.00000000
C        7.62779621       7.61282226       0.00000000
C        6.37840385       8.29546656       0.00000000
C        6.27146415       9.71494804       0.00000000
C        7.49789190      10.43438570       0.00000000
C        7.31314661      11.90262495       0.00000000
C        6.02534491      12.68077647       0.00000000
C        5.55568605      14.31125176       0.00000000
C        6.61783232      15.17879712       0.00000000
C        6.51346589      16.73150026       0.00000000
C        5.23831817      17.44671470       0.00000000
C        5.10543712      18.89606545       0.00000000
C        6.40289177      19.76417800       0.00000000
C        6.29249711      21.09261375       0.00000000
C        8.65006011       0.14344609       0.00000000
C        8.43337435       1.51521777       0.00000000
C        9.60507177       2.28350404       0.00000000
C        9.71394024       3.59280133       0.00000000
C        8.55624385       4.21299277       0.00000000
C        8.71700972       5.61831867       0.00000000
C        9.90069252       6.37047609       0.00000000
C        9.94489136       7.70515103       0.00000000
C        8.79761419       8.40946754       0.00000000
C        8.71983578       9.63270196       0.00000000
C        9.92416926      10.44084009       0.00000000
C        9.70741462      11.87278131       0.00000000
C        8.56462674      12.69923591       0.00000000
C        7.91846945      14.31359347       0.00000000
C        9.07591725      15.31328004       0.00000000
C        8.89161312      16.71241485       0.00000000
C        7.70952186      17.47198191       0.00000000
C        7.49044691      18.89769253       0.00000000
C        8.96202106      19.57499791       0.00000000
C        8.74706026      21.05756580       0.00000000
C       11.02214157      -0.01529567       0.00000000
C       10.81360413       1.48432351       0.00000000
C       11.99937587       2.32281687       0.00000000
C       12.21036746       3.67339809       0.00000000
C       11.06977704       4.24879559       0.00000000
C       10.99760488       5.55380126       0.00000000
C       12.33857374       6.31231627       0.00000000
C       12.49134375       7.59664283       0.00000000
C       11.24558399       8.24268642       0.00000000
C       11.12176729       9.77813360       0.00000000
C       12.51385202      10.44141129       0.00000000
C       12.29474997      11.79059290       0.00000000
C       11.00938994      12.65340894       0.00000000
C       10.39376669      14.32126672       0.00000000
C       11.62052453      15.34809248       0.00000000
C       11.24721956      16.77442191       0.00000000
C       10.03027058      17.54666332       0.00000000
C       10.01245298      18.89730212       0.00000000
C       11.25672070      19.48734984       0.00000000
C       11.27224364      21.03399949       0.00000000
C       13.68962163      -0.08611302       0.00000000
C       13.20897913       1.40206705       0.00000000
C       14.42075893       2.23130057       0.00000000
C       14.61448575       3.46243306       0.00000000
C       13.50251014       4.31411242       0.00000000
C       13.51186503       5.70447260       0.00000000
C       14.82291561       6.38161019       0.00000000
C       14.87107487       7.73315436       0.00000000
C       13.59874179       8.24801055       0.00000000
C       13.58977158       9.74240349       0.00000000
C       14.84992064      10.45645478       0.00000000
C       14.71582074      11.90660507       0.00000000
C       13.52588495      12.72660160       0.00000000
C       12.77926099      14.31700072       0.00000000
C       14.02808495      15.20453366       0.00000000
C       13.81788427      16.67766554       0.00000000
C       12.49206969      17.54227805       0.00000000
C       12.59428659      18.96348320       0.00000000
C       13.71318718      20.69033030       0.00000000
C       13.48287333      23.34181589       0.00000000
C       16.10230010      -0.06338607       0.00000000
C       15.68505479       1.51084665       0.00000000
C       17.01115611       2.20274136       0.00000000
C       16.88477216       3.63053469       0.00000000
C       15.87588858       4.35111378       0.00000000
C       15.99263732       5.66168561       0.00000000
C       17.25472155       6.43391008       0.00000000
C       17.33666898       7.71264943       0.00000000
C       16.16536073       8.36443448       0.00000000
C       16.07092482       9.69973235       0.00000000
C       17.29724436      10.44012018       0.00000000
C       17.10295540      11.86116236       0.00000000
C       15.89309247      12.74254415       0.00000000
C       15.34467393      14.44107558       0.00000000
C       16.55151113      15.38462476       0.00000000
C       16.21272987      16.82391471       0.00000000
C       15.04981780      17.72651225       0.00000000
C       14.56607083      19.13182191       0.00000000
C       16.20715722      19.57395815       0.00000000
C       16.08039047      21.04031083       0.00000000
C       18.44641098       0.04773538       0.00000000
C       18.24292063       1.57779748       0.00000000
C       19.51746880       2.35311932       0.00000000
C       19.48991956       3.53243833       0.00000000
C       18.38993238       4.35452140       0.00000000
C       18.36929887       5.71891297       0.00000000
C       19.69570292       6.46557409       0.00000000
C       19.74301213       7.72650041       0.00000000
C       18.63610994       8.36116364       0.00000000
C       18.58123976       9.74926102       0.00000000
C       19.73907105      10.55775102       0.00000000
C       19.71387724      11.98372015       0.00000000
C       18.35821679      12.76542362       0.00000000
C       17.74904592      14.47092312       0.00000000
C       18.99037566      15.45483643       0.00000000
C       18.62630956      16.76602587       0.00000000
C       17.39319287      17.54456271       0.00000000
C       17.42716977      18.89796037       0.00000000
C       18.30513179      20.93637705       0.00000000
C       19.49638237      21.60428866       0.00000000
C       20.80188675       0.08948774       0.00000000
C       20.67948400       1.44530486       0.00000000
C       21.97376594       2.31135303       0.00000000
C       21.72687715       3.55340715       0.00000000
C       20.74903749       4.46793751       0.00000000
C       20.98524624       5.89242800       0.00000000
C       21.76130374       7.71821825       0.00000000
C       28.73060351      11.79413194       0.00000000
C       20.96340312       8.49565226       0.00000000
C       20.94651053       9.95492941       0.00000000
C       21.87289930      10.57322228       0.00000000
C       21.81247898      12.11176997       0.00000000
C       20.74538151      13.00527244       0.00000000
C       20.02847045      14.46793365       0.00000000
C       21.18639409      15.37013449       0.00000000
C       21.17451782      16.91887009       0.00000000
C       19.78629821      17.80461783       0.00000000
C       18.93365147      19.57155628       0.00000000
C       21.09973971      19.43092812       0.00000000
C       20.97952199      20.95191101       0.00000000
