180
Lattice="21.92079207920792 0.0 0.0 0.0 21.093292012967517 0.0 0.0 0.0 11.881188118811881" Properties=species:S:1:pos:R:3 pbc="T T T"
C        0.97808893      -0.02254323       0.00000000
C        0.83033293       1.68637153       0.00000000
C        1.93169025       2.41540639       0.00000000
C        2.01496640       3.68302244       0.00000000
C        0.96108745       4.30683329       0.00000000
C        0.98484493       5.78071390       0.00000000
C        2.14019134       6.39553569       0.00000000
C        2.25489900       7.69588851       0.00000000
C        1.07902895       8.28831806       0.00000000
C        1.09769288       9.82863881       0.00000000
C        2.24466960      10.50209688       0.00000000
C        2.11015157      11.86020936       0.00000000
C        0.94334439      12.61136951       0.00000000
C        0.29797244      14.37595237       0.00000000
C        1.49613199      15.19417817       0.00000000
C        1.31879260      16.71874945       0.00000000
C        0.39433850      17.38402768       0.00000000
C        0.07565954      18.81258254       0.00000000
C        1.26233791      19.49097688       0.00000000
C        1.27203940      21.18568800       0.00000000
C        3.11392584       0.28641735       0.00000000
C        3.07344373       1.77823225       0.00000000
C        4.19370312       2.42342178       0.00000000
C        4.23730784       3.68902903       0.00000000
C        3.16560372       4.37311118       0.00000000
C        3.23495203       5.71333196       0.00000000
C        4.43506971       6.40298949       0.00000000
C        4.57508140       7.70163152       0.00000000
C        3.42415667       8.35275205       0.00000000
C        3.34978119       9.72775610       0.00000000
C        4.50565709      10.47510515       0.00000000
C        4.40391088      11.87763446       0.00000000
C        3.20387299      12.68957488       0.00000000
C        2.69162266      14.37119460       0.00000000
C        3.73993445      15.32118617       0.00000000
C        3.47325621      16.79236399       0.00000000
C        2.27431521      17.49651565       0.00000000
C        2.24487908      18.80576389       0.00000000
C        3.49648056      19.49064903       0.00000000
C        3.49330501      20.99754022       0.00000000
C        5.44092633       0.30284160       0.00000000
C        5.37636457       1.81079640       0.00000000
C        6.54125620       2.44311685       0.00000000
C        6.68204675       3.77441373       0.00000000
C        5.47732897       4.35501813       0.00000000
C        5.59563671       5.72748656       0.00000000
C        6.80678347       6.42277539       0.00000000
C        6.99494002       7.73303277       0.00000000
C        5.80464921       8.35562510       0.00000000
C        5.69945889       9.75545221       0.00000000
C        6.90257569      10.49399396       0.00000000
C        6.78184404      11.92091023       0.00000000
C        5.52788128      12.72842671       0.00000000
C        4.96545481      14.50106099       0.00000000
C        6.13312395      15.31041694       0.00000000
C        5.84638459      16.80659856       0.00000000
C        4.62734412      17.50573467       0.00000000
C        4.61562567      18.82997061       0.00000000
C        5.86556645      19.50295012       0.00000000
C        5.88824769      20.97842393       0.00000000
C        7.82401935       0.29742391       0.00000000
C        7.79817258       1.81403718       0.00000000
C        9.02170779       2.47964486       0.00000000
C        9.05841924       3.80802215       0.00000000
C        7.89633231       4.43671431       0.00000000
C        8.01940354       5.77922611       0.00000000
C        9.22150407       6.45110006       0.00000000
C        9.42884422       7.74519922       0.00000000
C        8.18007607       8.39026360       0.00000000
C        8.10880355       9.78054776       0.00000000
C        9.33037328      10.53563237       0.00000000
C        9.17633452      11.93399472       0.00000000
C        7.97253904      12.71415956       0.00000000
C        7.40308434      14.51482056       0.00000000
C        8.53329956      15.37608493       0.00000000
C        8.25150628      16.81420128       0.00000000
C        7.04240447      17.49601936       0.00000000
C        7.01933113      18.85346966       0.00000000
C        8.27681153      19.53055686       0.00000000
C        8.37462792      20.99382835       0.00000000
C       10.33761555       0.29744042       0.00000000
C       10.23865883       1.80293993       0.00000000
C       11.42552646       2.47540853       0.00000000
C       11.48201926       3.78961218       0.00000000
C       10.34285949       4.44115537       0.00000000
C       10.42298890       5.80665667       0.00000000
C       11.65347387       6.47691848       0.00000000
C       11.80593932       7.75545232       0.00000000
C       10.62591473       8.43048108       0.00000000
C       10.50564522       9.80880191       0.00000000
C       11.72896948      10.54643138       0.00000000
C       11.67287394      11.94586595       0.00000000
C       10.39126337      12.71255559       0.00000000
C        9.79246199      14.54569692       0.00000000
C       10.99429665      15.34122540       0.00000000
C       10.68687491      16.83259015       0.00000000
C        9.43930606      17.50815790       0.00000000
C        9.40643548      18.86606226       0.00000000
C       10.67792178      19.51847197       0.00000000
C       10.77246479      20.99710362       0.00000000
C       12.65799906       0.29629072       0.00000000
C       12.63630604       1.80857854       0.00000000
C       13.83749298       2.46317438       0.00000000
C       13.93520288       3.80180019       0.00000000
C       12.74244999       4.44012386       0.00000000
C       12.83877614       5.80441322       0.00000000
C       14.06308668       6.50272310       0.00000000
C       14.25542703       7.81055933       0.00000000
C       13.00427252       8.43310031       0.00000000
C       12.94669585       9.83599077       0.00000000
C       14.14758819      10.60459289       0.00000000
C       14.02362331      12.00686903       0.00000000
C       12.78678953      12.85350066       0.00000000
C       12.21306321      14.53378634       0.00000000
C       13.34990376      15.35670027       0.00000000
C       13.07776312      16.85849505       0.00000000
C       11.85848363      17.54634804       0.00000000
C       11.83514028      18.88904836       0.00000000
C       13.12452506      19.52887791       0.00000000
C       13.12006021      20.99718293       0.00000000
C       15.05123436       0.30344837       0.00000000
C       15.06258982       1.85749160       0.00000000
C       16.28316554       2.51724095       0.00000000
C       16.32051943       3.84493556       0.00000000
C       15.16000744       4.50933599       0.00000000
C       15.25377959       5.85861675       0.00000000
C       16.43958902       6.59239020       0.00000000
C       16.65419557       7.87149130       0.00000000
C       15.44625887       8.49386704       0.00000000
C       15.34947379       9.87689662       0.00000000
C       16.56685630      10.59092659       0.00000000
C       16.40594084      12.01948009       0.00000000
C       15.18773383      12.85555087       0.00000000
C       14.62698345      14.57782733       0.00000000
C       15.77789778      15.39651529       0.00000000
C       15.49431392      16.85134200       0.00000000
C       14.29315043      17.53915024       0.00000000
C       14.26798796      18.86951874       0.00000000
C       15.50358404      19.53934755       0.00000000
C       15.62824444      20.98012232       0.00000000
C       17.40443336       0.30330050       0.00000000
C       17.47304177       1.83536341       0.00000000
C       18.62500440       2.53692915       0.00000000
C       18.69141747       3.82062077       0.00000000
C       17.57982202       4.52886180       0.00000000
C       17.64190472       5.91890703       0.00000000
C       18.83233566       6.55818695       0.00000000
C       19.01034380       7.82917988       0.00000000
C       17.85113250       8.51727049       0.00000000
C       17.75203089       9.86157523       0.00000000
C       18.93335489      10.59264521       0.00000000
C       18.89176115      11.99394519       0.00000000
C       17.63563221      12.86290906       0.00000000
C       17.02169264      14.56103699       0.00000000
C       18.13480660      15.45664303       0.00000000
C       18.02840168      16.97570696       0.00000000
C       16.67903223      17.55681325       0.00000000
C       16.65916011      18.89235997       0.00000000
C       18.01470089      19.55499409       0.00000000
C       17.96033782      21.16343213       0.00000000
C       19.81849497       0.30326082       0.00000000
C       19.77148649       1.83244277       0.00000000
C       20.86433945       2.41515029       0.00000000
C       20.93566403       3.85685693       0.00000000
C       19.85273398       4.52633271       0.00000000
C       20.03330710       5.98734949       0.00000000
C       21.35103715       6.48833465       0.00000000
C       21.32279479       7.73948653       0.00000000
C       20.10045140       8.47246991       0.00000000
C       20.10046345       9.92628543       0.00000000
C       21.38621041      10.55012156       0.00000000
C       20.87884484      12.01570205       0.00000000
C       19.82397172      12.92063824       0.00000000
C       19.32481398      14.59794330       0.00000000
C       20.43455291      15.28703254       0.00000000
C       21.41750868      17.92209505       0.00000000
C       20.22002807      17.02187867       0.00000000
C       19.11438791      18.51832896       0.00000000
C       20.53305854      19.35469804       0.00000000
C       22.52704084      20.01139620       0.00000000
