180
Lattice="22.14 0.0 0.0 0.0 21.304224933097192 0.0 0.0 0.0 12.0" Properties=species:S:1:pos:R:3 pbc="T T T"
C        0.78064250       0.94442154       0.00000000
C        0.82634584       2.58967770       0.00000000
C        2.06286653       3.14631352       0.00000000
C        2.11263138       4.64054173       0.00000000
C        0.74263986       5.06819508       0.00000000
C        0.84615720       6.85003551       0.00000000
C        1.93403255       7.47166489       0.00000000
C        2.08404352       8.93473767       0.00000000
C        0.72179967       9.31868781       0.00000000
C        0.80796235      11.05301155       0.00000000
C        1.81435539      11.72265515       0.00000000
C        1.89592112      13.19601231       0.00000000
C        0.66398042      13.82370915       0.00000000
C        0.66988818      15.51552664       0.00000000
C        1.61784614      16.18484808       0.00000000
C        1.74383140      17.50884424       0.00000000
C        0.63355104      18.15436129       0.00000000
C        0.71766790      19.92579528       0.00000000
C        1.68492501      20.64051150       0.00000000
C        2.08016635       0.55509234       0.00000000
C        3.10546574       1.09725227       0.00000000
C        3.21208088       2.43166219       0.00000000
C        4.44229505       3.16087239       0.00000000
C        4.34216721       4.65864625       0.00000000
C        3.14932739       5.32872172       0.00000000
C        3.12510745       6.77052441       0.00000000
C        4.31886802       7.42240143       0.00000000
C        4.27749937       8.84811097       0.00000000
C        3.10327722       9.61163960       0.00000000
C        3.05132564      11.05719636       0.00000000
C        4.19894249      11.71280526       0.00000000
C        4.13813675      13.17141647       0.00000000
C        2.88285920      14.02567472       0.00000000
C        2.90641885      15.46754393       0.00000000
C        4.10682982      16.18276221       0.00000000
C        4.04112808      17.59351338       0.00000000
C        2.91653799      18.30806593       0.00000000
C        2.80943021      19.78296995       0.00000000
C        4.03849213      20.65242220       0.00000000
C        4.18527824       0.52883913       0.00000000
C        5.53931528       1.03963893       0.00000000
C        5.61225986       2.39861319       0.00000000
C        6.72650230       3.08571610       0.00000000
C        6.83556930       4.51957234       0.00000000
C        5.61498051       5.22399521       0.00000000
C        5.49791312       6.65175196       0.00000000
C        6.67479343       7.43817604       0.00000000
C        6.68280422       8.91403119       0.00000000
C        5.47870394       9.62032094       0.00000000
C        5.45098002      11.04445975       0.00000000
C        6.69719787      11.63774199       0.00000000
C        6.44122810      13.22826911       0.00000000
C        5.29822964      13.99424362       0.00000000
C        5.25098384      15.44742373       0.00000000
C        6.43453994      16.11053573       0.00000000
C        6.54224823      17.59245004       0.00000000
C        5.21034111      18.29535016       0.00000000
C        5.21928227      19.75669974       0.00000000
C        6.39061781      20.57354596       0.00000000
C        6.80957110       0.46089673       0.00000000
C        7.87228712       1.04623820       0.00000000
C        8.01119599       2.43302866       0.00000000
C        9.19449354       3.11819279       0.00000000
C        9.19132884       4.71756256       0.00000000
C        7.94530058       5.27710187       0.00000000
C        8.00760050       6.82942547       0.00000000
C        9.24540607       7.41739756       0.00000000
C        9.09572827       8.83815767       0.00000000
C        7.91170061       9.61622643       0.00000000
C        8.03171399      11.10910375       0.00000000
C        9.14637176      11.75965262       0.00000000
C        9.06817841      13.27132290       0.00000000
C        7.75106083      13.88311136       0.00000000
C        7.73430507      15.36275508       0.00000000
C        8.88673105      16.07478793       0.00000000
C        8.91695197      17.58945534       0.00000000
C        7.71050823      18.34654857       0.00000000
C        7.71588341      19.85991821       0.00000000
C        8.89185754      20.64306918       0.00000000
C        9.08434371       0.57017038       0.00000000
C       10.32074007       1.06026301       0.00000000
C       10.48113702       2.45303276       0.00000000
C       11.59152710       3.18372140       0.00000000
C       11.73466724       4.60173249       0.00000000
C       10.44767876       5.31440311       0.00000000
C       10.37810678       6.82623667       0.00000000
C       11.59611714       7.49839611       0.00000000
C       11.56281249       8.87677259       0.00000000
C       10.38734530       9.55537649       0.00000000
C       10.42616327      11.08109623       0.00000000
C       11.59244383      11.81459287       0.00000000
C       11.47816670      13.24565138       0.00000000
C       10.19279416      14.08094681       0.00000000
C       10.11393235      15.60695764       0.00000000
C       11.38981918      16.13588357       0.00000000
C       11.37183599      17.61543529       0.00000000
C       10.09797595      18.28390574       0.00000000
C       10.06109756      19.79634959       0.00000000
C       11.31679133      20.66741385       0.00000000
C       11.50560721       0.61927943       0.00000000
C       12.78216829       1.03860260       0.00000000
C       12.89941655       2.51214925       0.00000000
C       14.08558939       3.26922021       0.00000000
C       14.16473305       4.68811438       0.00000000
C       12.87686030       5.29298189       0.00000000
C       12.86015533       6.72829278       0.00000000
C       14.03542375       7.46825736       0.00000000
C       14.01113055       8.90959864       0.00000000
C       12.76340780       9.57066940       0.00000000
C       12.84205200      11.10367018       0.00000000
C       14.05304367      11.72479154       0.00000000
C       13.93335504      13.24665731       0.00000000
C       12.61018924      14.00577882       0.00000000
C       12.70875778      15.52719257       0.00000000
C       13.90413320      16.28181581       0.00000000
C       13.76511995      17.68866678       0.00000000
C       12.50242533      18.38737433       0.00000000
C       12.56370902      19.89405911       0.00000000
C       13.75910201      20.65104184       0.00000000
C       14.11867642       0.66940351       0.00000000
C       15.32791529       1.08660178       0.00000000
C       15.28676947       2.57050588       0.00000000
C       16.53332680       3.19379958       0.00000000
C       16.59023453       4.69427660       0.00000000
C       15.30756197       5.32954108       0.00000000
C       15.21099198       6.79909677       0.00000000
C       16.45182194       7.53105522       0.00000000
C       16.43350597       8.95832932       0.00000000
C       15.23757260       9.59922415       0.00000000
C       15.22327612      11.04347881       0.00000000
C       16.41710920      11.67693074       0.00000000
C       16.35090700      13.23792800       0.00000000
C       15.05396156      13.97211396       0.00000000
C       15.03013016      15.41224143       0.00000000
C       16.18141851      16.24861826       0.00000000
C       16.19592568      17.71164179       0.00000000
C       14.92854299      18.38236323       0.00000000
C       15.08696424      19.88538633       0.00000000
C       16.25545205      20.68952502       0.00000000
C       16.51253323       0.59650741       0.00000000
C       17.71189542       1.12233167       0.00000000
C       17.82433214       2.56987381       0.00000000
C       18.98084312       3.21569314       0.00000000
C       18.97592299       4.62454116       0.00000000
C       17.79108084       5.37735707       0.00000000
C       17.74096491       6.84544456       0.00000000
C       18.94786394       7.58253542       0.00000000
C       18.95690991       9.00260270       0.00000000
C       17.72487658       9.65901990       0.00000000
C       17.75573109      11.03989188       0.00000000
C       18.85802340      11.83240426       0.00000000
C       18.75081022      13.37977857       0.00000000
C       17.49792382      14.05783342       0.00000000
C       17.42638444      15.59047970       0.00000000
C       18.69003322      16.29860551       0.00000000
C       18.75898542      17.72613254       0.00000000
C       17.51934885      18.27424621       0.00000000
C       17.38322174      19.80771188       0.00000000
C       18.63682311      20.64718073       0.00000000
C       18.89522045       0.60389514       0.00000000
C       20.07617504       1.05499115       0.00000000
C       20.28266523       2.53334400       0.00000000
C       21.38935780       3.30598830       0.00000000
C       21.40257402       4.82349615       0.00000000
C       20.07645017       5.33011828       0.00000000
C       20.30497734       6.80415307       0.00000000
C       21.38964416       7.74065074       0.00000000
C       21.42340101       9.15328054       0.00000000
C       20.21003441       9.67566763       0.00000000
C       20.21406035      11.13729815       0.00000000
C       21.38886036      11.86150563       0.00000000
C       21.36089530      13.36173648       0.00000000
C       20.06370654      14.05838907       0.00000000
C       20.02243071      15.61672687       0.00000000
C       21.37930691      16.37737154       0.00000000
C       21.38094026      17.86479006       0.00000000
C       19.99012747      18.39823161       0.00000000
C       19.99809928      19.99649826       0.00000000
C       21.36419107      20.56701859       0.00000000
C       21.43091609       0.67443539       0.00000000
