180
Lattice="22.14 0.0 0.0 0.0 21.304224933097192 0.0 0.0 0.0 12.0" Properties=species:S:1:pos:R:3 pbc="T T T"
C        0.85917069       1.05576153       0.00000000
C        0.23874064       2.70738801       0.00000000
C        2.08838996       3.05476883       0.00000000
C        2.15911157       4.72721936       0.00000000
C        0.15026415       4.76697816       0.00000000
C        0.61466371       6.70249611       0.00000000
C        1.74718057       7.54932767       0.00000000
C        1.68993821       9.06840327       0.00000000
C        0.58413382       9.80542344       0.00000000
C       -0.01892146      11.70589045       0.00000000
C        1.95732015      11.71171928       0.00000000
C        1.77970721      13.18448218       0.00000000
C        0.18988701      13.43654348       0.00000000
C        0.29290476      15.74401545       0.00000000
C        1.86624591      16.02932023       0.00000000
C        1.67665877      17.49185721       0.00000000
C        0.00644258      17.65800246       0.00000000
C        0.55878419      19.45528519       0.00000000
C        1.74266200      20.56049456       0.00000000
C        2.00494999       0.21305473       0.00000000
C        3.32284776       1.25732572       0.00000000
C        3.28543051       2.53769915       0.00000000
C        4.67826370       3.42588775       0.00000000
C        4.42796579       4.72793432       0.00000000
C        3.29778565       5.44600320       0.00000000
C        3.06518357       6.62268678       0.00000000
C        4.49072796       7.26342774       0.00000000
C        4.23790696       8.89994483       0.00000000
C        3.18239761       9.53934831       0.00000000
C        3.21532159      10.79741175       0.00000000
C        4.33155946      11.96574735       0.00000000
C        3.95615671      13.25666314       0.00000000
C        3.18187251      13.97073041       0.00000000
C        3.00460207      15.17143155       0.00000000
C        4.27578316      16.22486967       0.00000000
C        4.11679510      17.61046868       0.00000000
C        2.87121210      18.17443348       0.00000000
C        2.98856186      19.41180441       0.00000000
C        3.71216733      20.72160775       0.00000000
C        4.24749193       0.24176765       0.00000000
C        5.74568860       1.22886405       0.00000000
C        5.67294829       2.48966717       0.00000000
C        6.78990205       3.31968936       0.00000000
C        7.06299802       4.39268700       0.00000000
C        5.61035328       5.54923234       0.00000000
C        5.57418994       6.54498583       0.00000000
C        6.97434865       7.59607923       0.00000000
C        6.67464615       8.96888684       0.00000000
C        5.47447514       9.56155578       0.00000000
C        5.67251788      10.89748414       0.00000000
C        6.58814376      11.91216905       0.00000000
C        6.81113895      13.49948556       0.00000000
C        5.11906859      13.79280989       0.00000000
C        5.54208203      15.34752449       0.00000000
C        6.64507142      16.42821766       0.00000000
C        6.35806477      17.73161237       0.00000000
C        5.33803092      18.26146007       0.00000000
C        5.17315971      19.74370641       0.00000000
C        6.49411093      20.62869865       0.00000000
C        6.82344122       0.47838034       0.00000000
C        8.02667042       1.15977798       0.00000000
C        8.15952610       2.63430756       0.00000000
C        9.14893101       3.26280377       0.00000000
C        9.27682375       4.83648436       0.00000000
C        7.67522310       5.55532060       0.00000000
C        8.28484379       6.62917062       0.00000000
C        9.40973737       7.65990422       0.00000000
C        9.28059643       8.86400040       0.00000000
C        8.00978617       9.57797798       0.00000000
C        7.89463567      10.92082110       0.00000000
C        9.09918488      11.69201217       0.00000000
C        9.02377743      13.47612428       0.00000000
C        7.76437466      14.15107606       0.00000000
C        7.98030467      15.67650400       0.00000000
C        9.92672153      15.89802799       0.00000000
C        8.97835463      17.49974030       0.00000000
C        7.62842381      18.23757021       0.00000000
C        7.68009129      20.06658356       0.00000000
C        9.18639744      20.46698474       0.00000000
C        9.40922355       0.31405770       0.00000000
C       10.34965383       1.22907526       0.00000000
C       10.34771351       2.49693335       0.00000000
C       11.70398961       3.93433494       0.00000000
C       11.10431953       4.65318215       0.00000000
C       10.72473316       5.74225162       0.00000000
C       10.12818414       6.63200881       0.00000000
C       11.52058449       7.88042020       0.00000000
C       11.49968738       9.08197078       0.00000000
C       10.22833043       9.72286336       0.00000000
C       10.52526355      11.03163156       0.00000000
C       11.57815690      12.12704443       0.00000000
C       11.38916549      13.29284995       0.00000000
C       10.25820495      13.77115552       0.00000000
C       10.34405826      15.28060130       0.00000000
C       11.47542636      16.48725315       0.00000000
C       11.27836164      17.48068885       0.00000000
C       10.29574037      18.23216077       0.00000000
C       10.21800207      19.53801711       0.00000000
C       11.15654301      20.56034861       0.00000000
C       11.76815800       0.41451930       0.00000000
C       13.07813376       1.15006694       0.00000000
C       12.93901344       2.55499226       0.00000000
C       14.24874150       3.59904714       0.00000000
C       13.54719812       5.27639195       0.00000000
C       12.40635023       5.22487388       0.00000000
C       12.95358213       6.76727095       0.00000000
C       13.72902142       7.45593379       0.00000000
C       14.09224926       8.80647727       0.00000000
C       12.79709154       9.42163492       0.00000000
C       12.66011772      11.19232274       0.00000000
C       14.22803782      11.66192268       0.00000000
C       14.01321332      13.12595993       0.00000000
C       12.66145651      13.97565793       0.00000000
C       12.47071887      15.43402036       0.00000000
C       13.77322731      16.24071313       0.00000000
C       13.56688130      17.54008462       0.00000000
C       12.47668022      18.41070685       0.00000000
C       12.67942220      19.91107897       0.00000000
C       13.92295869      20.50378778       0.00000000
C       14.13840572       0.20608128       0.00000000
C       15.24493692       0.98442628       0.00000000
C       15.32590151       2.51987770       0.00000000
C       16.41947497       3.13228387       0.00000000
C       16.71245092       4.50545884       0.00000000
C       15.26862973       5.47326207       0.00000000
C       14.93103980       7.02639742       0.00000000
C       16.57184935       7.88142896       0.00000000
C       16.36323273       9.11624003       0.00000000
C       15.36667901       9.91402521       0.00000000
C       15.21808469      11.30594183       0.00000000
C       16.26001557      11.81164297       0.00000000
C       16.26155713      13.24460298       0.00000000
C       14.93168815      14.20809408       0.00000000
C       15.01656529      15.42781266       0.00000000
C       16.08021199      16.31679239       0.00000000
C       16.01636534      17.75894640       0.00000000
C       14.92580404      18.50346582       0.00000000
C       15.08518851      19.77680122       0.00000000
C       16.23634147      20.55967053       0.00000000
C       16.44961457       0.71595342       0.00000000
C       17.60193242       1.17052302       0.00000000
C       17.73449977       2.58228784       0.00000000
C       19.12829917       3.34442883       0.00000000
C       19.06302848       4.69460112       0.00000000
C       17.79384498       5.58723336       0.00000000
C       17.69988631       7.06568281       0.00000000
C       19.02742281       7.68700110       0.00000000
C       18.87607186       9.01283839       0.00000000
C       17.70439238       9.91452774       0.00000000
C       17.67971307      11.09314877       0.00000000
C       18.87651678      11.88574489       0.00000000
C       19.13744452      13.54281725       0.00000000
C       17.38873572      14.24234044       0.00000000
C       17.38481195      15.70767798       0.00000000
C       19.12572233      16.24696143       0.00000000
C       18.79605621      17.79526301       0.00000000
C       17.59585766      18.26639117       0.00000000
C       17.34471842      19.75726066       0.00000000
C       18.59513896      20.77912667       0.00000000
C       18.99730996       0.45410252       0.00000000
C       20.50135359       0.89835166       0.00000000
C       19.99704067       2.39461567       0.00000000
C       21.14791548       3.06520425       0.00000000
C       21.69043168       4.72994629       0.00000000
C       20.48092891       5.33898392       0.00000000
C       20.04378524       6.65679373       0.00000000
C       21.09207739       7.69228910       0.00000000
C       21.85029637       8.92345057       0.00000000
C       20.16768622       9.63593145       0.00000000
C       20.23239834      11.06964990       0.00000000
C       21.11018327      12.20948359       0.00000000
C       21.64699530      13.29893647       0.00000000
C       20.42669312      13.82467679       0.00000000
C       19.93511778      15.15311000       0.00000000
C       21.06520730      16.36068381       0.00000000
C       21.72556611      17.49294164       0.00000000
C       20.40642915      18.30180094       0.00000000
C       19.84408043      19.47494420       0.00000000
C       21.10502247      20.50897331       0.00000000
C       21.19624959       0.14750882       0.00000000
