180
Lattice="21.490972626674434 0.0 0.0 0.0 20.679698051928938 0.0 0.0 0.0 11.648223645894" Properties=species:S:1:pos:R:3 pbc="T T T"
C        0.62912444       0.07729122       0.00000000
C        0.55861711       1.60832092       0.00000000
C        1.68834375       2.34282640       0.00000000
C        1.75971568       3.64778079       0.00000000
C        0.54285695       4.19867860       0.00000000
C        0.69388318       5.68013481       0.00000000
C        1.85781932       6.40656739       0.00000000
C        2.04298757       7.70601828       0.00000000
C        0.70880365       8.27238970       0.00000000
C        0.80007390       9.77379280       0.00000000
C        1.95198730      10.55222232       0.00000000
C        1.86904113      11.98431619       0.00000000
C        0.61740964      12.85884963       0.00000000
C        0.23177543      14.54188767       0.00000000
C        1.20542065      15.45647619       0.00000000
C        0.92377057      16.89644887       0.00000000
C       -0.18826105      17.78169165       0.00000000
C       -0.19357729      19.00929944       0.00000000
C        0.80712473      19.65923464       0.00000000
C        1.06793485      20.85117258       0.00000000
C        2.91682749       0.07748254       0.00000000
C        2.85412556       1.55371782       0.00000000
C        3.98897535       2.34691137       0.00000000
C        4.05001105       3.63710278       0.00000000
C        2.92859828       4.32765705       0.00000000
C        3.01903899       5.66082384       0.00000000
C        4.20621786       6.39077466       0.00000000
C        4.44075733       7.68437338       0.00000000
C        3.23957808       8.33999836       0.00000000
C        3.14637117       9.72861711       0.00000000
C        4.30988018      10.54724443       0.00000000
C        4.22894912      11.95380312       0.00000000
C        2.99565126      12.90100415       0.00000000
C        2.40380192      14.52573464       0.00000000
C        3.53509586      15.44113969       0.00000000
C        3.22899636      16.86795074       0.00000000
C        2.00576721      17.71403733       0.00000000
C        1.94356921      19.04419148       0.00000000
C        3.14766077      19.70045287       0.00000000
C        3.35381018      20.89281291       0.00000000
C        5.26928987       0.10917604       0.00000000
C        5.24931705       1.59332195       0.00000000
C        6.40098111       2.39399725       0.00000000
C        6.53595175       3.68605621       0.00000000
C        5.30688446       4.32454722       0.00000000
C        5.40067933       5.68719772       0.00000000
C        6.60153751       6.39953815       0.00000000
C        6.91191876       7.70011899       0.00000000
C        5.65615559       8.37310346       0.00000000
C        5.51785693       9.73698335       0.00000000
C        6.71307551      10.54042024       0.00000000
C        6.66408933      11.98594559       0.00000000
C        5.35639031      12.92858924       0.00000000
C        4.77966641      14.56100842       0.00000000
C        5.93374478      15.47350893       0.00000000
C        5.67077418      16.90815514       0.00000000
C        4.38312126      17.69550799       0.00000000
C        4.34683676      19.06200956       0.00000000
C        5.60029783      19.70318656       0.00000000
C        5.83373937      20.95405386       0.00000000
C        7.67393942       0.11074221       0.00000000
C        7.68572515       1.61381026       0.00000000
C        8.90908166       2.44365861       0.00000000
C        8.96955355       3.72126301       0.00000000
C        7.73616711       4.39166326       0.00000000
C        7.86953747       5.72677360       0.00000000
C        9.08897141       6.39992293       0.00000000
C        9.34287419       7.71014029       0.00000000
C        8.05397293       8.45189325       0.00000000
C        7.99317902       9.82506428       0.00000000
C        9.18798150      10.59185315       0.00000000
C        9.07153462      12.00284538       0.00000000
C        7.84653591      12.93095838       0.00000000
C        7.22225763      14.56671107       0.00000000
C        8.36928427      15.52736059       0.00000000
C        8.05800189      16.94488287       0.00000000
C        6.80479196      17.70416511       0.00000000
C        6.81376170      19.05656030       0.00000000
C        8.10692401      19.68533255       0.00000000
C        8.25425221      20.93949592       0.00000000
C       10.29437105       0.13612368       0.00000000
C       10.16615740       1.60515535       0.00000000
C       11.33828633       2.43497857       0.00000000
C       11.43436886       3.72888234       0.00000000
C       10.24309226       4.39603930       0.00000000
C       10.32381672       5.74730700       0.00000000
C       11.55147250       6.44448323       0.00000000
C       11.78634421       7.72747031       0.00000000
C       10.55874175       8.46171767       0.00000000
C       10.39318979       9.84208446       0.00000000
C       11.63864435      10.59452500       0.00000000
C       11.60428310      11.98335970       0.00000000
C       10.30828692      12.92736898       0.00000000
C        9.67333325      14.59059830       0.00000000
C       10.87479533      15.52109974       0.00000000
C       10.54373361      16.94073840       0.00000000
C        9.24196267      17.74297426       0.00000000
C        9.37549673      19.10505321       0.00000000
C       11.69274172      19.13807512       0.00000000
C       10.51786220      20.28418825       0.00000000
C       12.62869485       0.10812528       0.00000000
C       12.62147745       1.60741508       0.00000000
C       13.78820268       2.40942050       0.00000000
C       13.87817580       3.70804026       0.00000000
C       12.68554138       4.41535405       0.00000000
C       12.79151567       5.78683910       0.00000000
C       14.01810916       6.48077805       0.00000000
C       14.24882612       7.80717816       0.00000000
C       12.97705555       8.46267666       0.00000000
C       12.89621288       9.86233194       0.00000000
C       14.10190970      10.63852849       0.00000000
C       14.01289941      12.02757032       0.00000000
C       12.74497987      12.97090980       0.00000000
C       12.10896562      14.60619789       0.00000000
C       13.30665358      15.44424478       0.00000000
C       13.05820762      16.51948091       0.00000000
C       12.97873829      17.13153944       0.00000000
C       11.71667222      17.73759562       0.00000000
C       14.05759561      19.13827703       0.00000000
C       13.14860933      20.57275799       0.00000000
C       15.03331935       0.20889075       0.00000000
C       15.06209696       1.67698382       0.00000000
C       16.26495548       2.47665286       0.00000000
C       16.35082012       3.81223851       0.00000000
C       15.11351492       4.44793246       0.00000000
C       15.25083507       5.79957991       0.00000000
C       16.43751740       6.55826133       0.00000000
C       16.71023968       7.86867530       0.00000000
C       15.41565873       8.54964824       0.00000000
C       15.35640180       9.92438054       0.00000000
C       16.59805844      10.62749497       0.00000000
C       16.46711963      12.03035479       0.00000000
C       15.21473874      12.94863888       0.00000000
C       14.58732826      14.61200258       0.00000000
C       15.78339197      15.55525823       0.00000000
C       16.65958939      17.78169950       0.00000000
C       15.45286390      17.00469933       0.00000000
C       14.20890797      17.78638198       0.00000000
C       15.43656663      19.69308049       0.00000000
C       15.66287155      20.94600646       0.00000000
C       17.62340202       0.32497197       0.00000000
C       17.52679867       1.69918166       0.00000000
C       18.68130159       2.52039212       0.00000000
C       18.84120972       3.79236614       0.00000000
C       17.64602901       4.48273945       0.00000000
C       17.71900507       5.87119849       0.00000000
C       18.98421792       6.56967760       0.00000000
C       19.18777565       7.82832035       0.00000000
C       17.95564104       8.53951052       0.00000000
C       17.82198524       9.90549468       0.00000000
C       19.07789413      10.64310125       0.00000000
C       18.99498785      12.05008407       0.00000000
C       17.68177398      12.95577848       0.00000000
C       17.05588999      14.62113039       0.00000000
C       18.19590384      15.59581948       0.00000000
C       17.81100135      16.82559286       0.00000000
C       18.35371378      17.44719191       0.00000000
C       16.67747062      19.08469298       0.00000000
C       17.96078229      19.79751518       0.00000000
C       18.11190171      21.01366339       0.00000000
C       19.92649256       0.48332203       0.00000000
C       19.97530033       1.82759040       0.00000000
C       21.06709171       2.52954268       0.00000000
C       21.06670838       3.62780442       0.00000000
C       20.04688600       4.49923523       0.00000000
C       20.12706850       5.88012411       0.00000000
C       21.07451864       6.58997258       0.00000000
C       21.06549158       7.82969022       0.00000000
C       20.20239011       8.66798731       0.00000000
C       20.20241523       9.93935138       0.00000000
C       21.07968971      10.64140459       0.00000000
C       21.02895995      12.02880713       0.00000000
C       20.04833472      13.06743505       0.00000000
C       19.49972022      14.66048899       0.00000000
C       21.21268723      13.90563044       0.00000000
C       20.92993617      15.58300752       0.00000000
C       20.29044219      17.13966360       0.00000000
C       19.10694237      18.72354195       0.00000000
C       21.00370552      19.60060844       0.00000000
C       21.00033392      21.15958465       0.00000000
