180
Lattice="22.14 0.0 0.0 0.0 21.304224933097192 0.0 0.0 0.0 12.0" Properties=species:S:1:pos:R:3 pbc="T T T"
C        1.54755957      -0.05148137       0.00000000
C        1.45570986       1.49907393       0.00000000
C        2.53461571       2.27521835       0.00000000
C        2.59710159       3.54482297       0.00000000
C        1.51105636       4.23833440       0.00000000
C        1.62200266       5.59511389       0.00000000
C        2.75783421       6.30668784       0.00000000
C        2.90056414       7.58259643       0.00000000
C        1.77408904       8.30318437       0.00000000
C        1.71168154       9.71780984       0.00000000
C        2.83467995      10.48266684       0.00000000
C        2.74217995      11.84426501       0.00000000
C        1.58626548      12.74529225       0.00000000
C        1.11322385      14.33184378       0.00000000
C        2.07244779      15.31918293       0.00000000
C        1.81991978      16.74693061       0.00000000
C        0.62094913      17.62937059       0.00000000
C        0.50587852      18.89109898       0.00000000
C        1.77241515      19.61453295       0.00000000
C        1.93457246      21.07412641       0.00000000
C        3.74481808       0.09553019       0.00000000
C        3.71180564       1.54886145       0.00000000
C        4.87190860       2.27687385       0.00000000
C        4.92058168       3.57446881       0.00000000
C        3.78661449       4.26783075       0.00000000
C        3.88810814       5.59620044       0.00000000
C        5.07265215       6.31464119       0.00000000
C        5.30608647       7.60929939       0.00000000
C        4.07539368       8.25877375       0.00000000
C        3.98833111       9.66337550       0.00000000
C        5.15044585      10.46868137       0.00000000
C        5.08198338      11.85072179       0.00000000
C        3.86476917      12.72910430       0.00000000
C        3.25547678      14.38941469       0.00000000
C        4.37210138      15.33309082       0.00000000
C        4.09973188      16.76595259       0.00000000
C        2.89958949      17.60460528       0.00000000
C        2.86598831      18.91939983       0.00000000
C        4.06905406      19.61805792       0.00000000
C        4.21573898      21.00448548       0.00000000
C        6.15133382       0.20883534       0.00000000
C        6.10966072       1.60924878       0.00000000
C        7.29181476       2.31164182       0.00000000
C        7.39659830       3.62964842       0.00000000
C        6.18393172       4.28391076       0.00000000
C        6.27756479       5.63670152       0.00000000
C        7.47835779       6.33350083       0.00000000
C        7.74958360       7.64373634       0.00000000
C        6.50757709       8.33942655       0.00000000
C        6.37629930       9.72554586       0.00000000
C        7.62758656      10.45524893       0.00000000
C        7.51656228      11.87112136       0.00000000
C        6.23144150      12.81443432       0.00000000
C        5.66703954      14.48313280       0.00000000
C        6.80182155      15.38872833       0.00000000
C        6.55078242      16.82080521       0.00000000
C        5.26661817      17.59400869       0.00000000
C        5.25982803      18.95466455       0.00000000
C        6.48845377      19.65210597       0.00000000
C        6.70471471      21.06166050       0.00000000
C        8.64844382       0.23028545       0.00000000
C        8.54181992       1.61101318       0.00000000
C        9.73829698       2.35950278       0.00000000
C        9.82670633       3.65789552       0.00000000
C        8.63398937       4.33037715       0.00000000
C        8.73507723       5.68063376       0.00000000
C        9.97962645       6.33945673       0.00000000
C       10.18746033       7.64162592       0.00000000
C        8.93935712       8.36795945       0.00000000
C        8.85777326       9.73611316       0.00000000
C       10.05528938      10.48963942       0.00000000
C        9.98372305      11.87861505       0.00000000
C        8.73655218      12.74543565       0.00000000
C        8.07033662      14.50052902       0.00000000
C        9.22285258      15.42407275       0.00000000
C        8.95288271      16.86019731       0.00000000
C        7.69324246      17.59764611       0.00000000
C        7.68115380      18.96741730       0.00000000
C        8.95722920      19.63939435       0.00000000
C        9.15936362      21.02639331       0.00000000
C       11.08292729       0.24620029       0.00000000
C       10.98627120       1.62924790       0.00000000
C       12.20106172       2.34222178       0.00000000
C       12.28749983       3.65716790       0.00000000
C       11.10344910       4.31542781       0.00000000
C       11.18582888       5.67296614       0.00000000
C       12.41713393       6.38598833       0.00000000
C       12.65663738       7.66149846       0.00000000
C       11.41437742       8.36701653       0.00000000
C       11.26150346       9.77212348       0.00000000
C       12.49063272      10.52317362       0.00000000
C       12.42698729      11.88717453       0.00000000
C       11.17054853      12.81229946       0.00000000
C       10.53000211      14.51789169       0.00000000
C       11.70533403      15.41763280       0.00000000
C       11.43201158      16.85535747       0.00000000
C       10.15149957      17.64214277       0.00000000
C       10.13793678      18.96371559       0.00000000
C       11.37969826      19.61508027       0.00000000
C       11.58158184      20.97359978       0.00000000
C       13.48309826       0.20146539       0.00000000
C       13.45267727       1.62358581       0.00000000
C       14.64360032       2.31883786       0.00000000
C       14.71433626       3.64723096       0.00000000
C       13.53661902       4.36514471       0.00000000
C       13.64610853       5.73314998       0.00000000
C       14.86150398       6.43090712       0.00000000
C       15.08685387       7.74087506       0.00000000
C       13.83329156       8.37836435       0.00000000
C       13.73069786       9.80342830       0.00000000
C       14.95146125      10.55797313       0.00000000
C       14.85814666      11.91812966       0.00000000
C       13.60623718      12.85156598       0.00000000
C       12.96459645      14.54445295       0.00000000
C       14.13786204      15.41743663       0.00000000
C       13.85159658      16.86898346       0.00000000
C       12.59125748      17.67528875       0.00000000
C       12.58213999      19.00388851       0.00000000
C       13.85817530      19.64865219       0.00000000
C       14.07395443      20.98895945       0.00000000
C       15.99175294       0.27255668       0.00000000
C       15.88986951       1.68193409       0.00000000
C       17.09561100       2.38919648       0.00000000
C       17.19478015       3.71857004       0.00000000
C       15.98652899       4.36489003       0.00000000
C       16.08513250       5.72474074       0.00000000
C       17.29217103       6.47698868       0.00000000
C       17.52975793       7.76250182       0.00000000
C       16.28778172       8.47943341       0.00000000
C       16.18292841       9.85078402       0.00000000
C       17.40413531      10.55914166       0.00000000
C       17.33864088      11.93140757       0.00000000
C       16.05369657      12.82240669       0.00000000
C       15.42611485      14.55482907       0.00000000
C       16.65607978      15.46316104       0.00000000
C       16.30594546      16.91908757       0.00000000
C       15.04377513      17.67774242       0.00000000
C       15.03009988      18.98968839       0.00000000
C       16.28534867      19.62009796       0.00000000
C       16.52226708      20.94653332       0.00000000
C       18.39646141       0.28647793       0.00000000
C       18.32946055       1.67902024       0.00000000
C       19.50614996       2.43487773       0.00000000
C       19.61603987       3.72661165       0.00000000
C       18.45228240       4.42431941       0.00000000
C       18.54946878       5.79125511       0.00000000
C       19.76531590       6.48675592       0.00000000
C       19.98320165       7.76352840       0.00000000
C       18.75247930       8.47948501       0.00000000
C       18.64035173       9.84454815       0.00000000
C       19.87887914      10.57571145       0.00000000
C       19.84356944      11.98670426       0.00000000
C       18.53166400      12.85037157       0.00000000
C       17.90241592      14.54962227       0.00000000
C       19.05769652      15.55333359       0.00000000
C       18.76553672      16.98747584       0.00000000
C       17.51462812      17.69865211       0.00000000
C       17.52127818      19.01033945       0.00000000
C       18.78048454      19.69052734       0.00000000
C       19.07217154      21.02517492       0.00000000
C       20.71928601       0.34898016       0.00000000
C       20.76965067       1.72295759       0.00000000
C       21.98839426       2.47900881       0.00000000
C       22.15411273       3.60486594       0.00000000
C       20.87849974       4.40118985       0.00000000
C       20.96660875       5.83871613       0.00000000
C       22.26722215       6.48374273       0.00000000
C       22.19109549       7.68803009       0.00000000
C       21.09480901       8.57374759       0.00000000
C       21.10195039       9.94161083       0.00000000
C       22.31942125      10.83300796       0.00000000
C       21.65633284      12.13359455       0.00000000
C       20.77018755      13.07258838       0.00000000
C       20.28798444      14.58232681       0.00000000
C       21.35634082      15.57338359       0.00000000
C       21.21655221      16.99048627       0.00000000
C       19.95213549      17.70932384       0.00000000
C       19.92494620      19.01701662       0.00000000
C       21.18174303      19.67585697       0.00000000
C       21.09414177      21.16003048       0.00000000
