180
Lattice="21.92079207920792 0.0 0.0 0.0 21.093292012967517 0.0 0.0 0.0 11.881188118811881" Properties=species:S:1:pos:R:3 pbc="T T T"
C        0.84263694       0.49117231       0.00000000
C        0.54484035       1.79259289       0.00000000
C        1.81907779       2.30168478       0.00000000
C        1.81940847       3.68893715       0.00000000
C        0.64673520       4.15678082       0.00000000
C        0.67626733       5.86261505       0.00000000
C        2.02730517       6.35343238       0.00000000
C        2.07057878       7.75022382       0.00000000
C        0.68769853       8.13771243       0.00000000
C        0.70606774       9.98236522       0.00000000
C        2.14439316      10.48705142       0.00000000
C        2.03576304      11.91444782       0.00000000
C        0.74541242      12.68762564       0.00000000
C        0.38015227      14.41984230       0.00000000
C        1.29709725      15.41608431       0.00000000
C        0.97406091      16.86778640       0.00000000
C       -0.25000732      17.69675547       0.00000000
C        0.34723931      19.22411778       0.00000000
C        1.99773516      19.04610741       0.00000000
C        1.02709487      20.43788945       0.00000000
C        3.12397219       0.35964900       0.00000000
C        2.94955807       1.57920932       0.00000000
C        4.14293725       2.34874020       0.00000000
C        4.19158365       3.67222303       0.00000000
C        3.05878119       4.31344770       0.00000000
C        3.13313961       5.64057104       0.00000000
C        4.31533076       6.40346593       0.00000000
C        4.52090552       7.70575763       0.00000000
C        3.36500018       8.31057621       0.00000000
C        3.28097266       9.72225449       0.00000000
C        4.46651454      10.56512873       0.00000000
C        4.29748177      11.95317801       0.00000000
C        3.16229186      12.91924685       0.00000000
C        2.46179291      14.41378256       0.00000000
C        3.70408059      15.29341340       0.00000000
C        3.45635250      16.60817216       0.00000000
C        3.07884732      17.05340371       0.00000000
C        2.18454555      17.65640178       0.00000000
C        3.32362292      19.69932212       0.00000000
C        3.39681087      20.92429505       0.00000000
C        5.49736882       0.41610565       0.00000000
C        5.31246856       1.66125595       0.00000000
C        6.54418081       2.35336664       0.00000000
C        6.60523921       3.67364982       0.00000000
C        5.47540593       4.37358401       0.00000000
C        5.49356161       5.74656489       0.00000000
C        6.74592158       6.38114083       0.00000000
C        6.97967560       7.72834106       0.00000000
C        5.75551427       8.40776760       0.00000000
C        5.58281465       9.81868959       0.00000000
C        6.87969130      10.54101756       0.00000000
C        6.71335282      11.96749154       0.00000000
C        5.50864967      12.87588228       0.00000000
C        4.89407974      14.42827898       0.00000000
C        6.11062671      15.42354059       0.00000000
C        5.77365545      16.86166574       0.00000000
C        4.51320885      17.63633731       0.00000000
C        4.45777792      19.03112104       0.00000000
C        5.76111879      19.70390643       0.00000000
C        5.80306847      20.95446674       0.00000000
C        7.95187700       0.39829015       0.00000000
C        7.75031762       1.62391215       0.00000000
C        8.97423140       2.38940175       0.00000000
C        9.04735183       3.67415238       0.00000000
C        7.88685282       4.36865254       0.00000000
C        7.97511129       5.75623357       0.00000000
C        9.23976669       6.39351875       0.00000000
C        9.38294080       7.74754989       0.00000000
C        8.19180110       8.43454900       0.00000000
C        8.06330580       9.80882706       0.00000000
C        9.32347362      10.55572369       0.00000000
C        9.18969335      11.93380627       0.00000000
C        7.99482143      12.88842458       0.00000000
C        7.32791406      14.41821548       0.00000000
C        8.58706116      15.45136427       0.00000000
C        8.13922562      16.86520341       0.00000000
C        6.92796541      17.62913765       0.00000000
C        6.90782171      19.03306129       0.00000000
C        8.24057743      19.70220503       0.00000000
C        8.23500475      20.93525531       0.00000000
C       10.40680554       0.36819600       0.00000000
C       10.21713365       1.65784483       0.00000000
C       11.46404075       2.42529737       0.00000000
C       11.51468051       3.74749537       0.00000000
C       10.35276505       4.38474290       0.00000000
C       10.37886353       5.75521075       0.00000000
C       11.70751775       6.41310541       0.00000000
C       11.84648794       7.73939398       0.00000000
C       10.64881580       8.43838999       0.00000000
C       10.51180751       9.85072315       0.00000000
C       11.78490175      10.51068251       0.00000000
C       11.65615318      11.90491988       0.00000000
C       10.46626979      12.89579780       0.00000000
C        9.75931307      14.41376070       0.00000000
C       10.92862353      15.48196867       0.00000000
C       10.61552024      16.91155898       0.00000000
C        9.42801786      17.64614253       0.00000000
C        9.31519993      19.02782383       0.00000000
C       10.58857972      19.69953117       0.00000000
C       10.70562775      20.94499616       0.00000000
C       12.80034020       0.35733231       0.00000000
C       12.65791965       1.61038161       0.00000000
C       13.94275905       2.33071067       0.00000000
C       13.89156623       3.72557231       0.00000000
C       12.80559532       4.45197945       0.00000000
C       12.83705209       5.80007073       0.00000000
C       14.09945583       6.49571833       0.00000000
C       14.29084566       7.81834996       0.00000000
C       13.06566010       8.43198909       0.00000000
C       12.94235303       9.83965163       0.00000000
C       14.21813516      10.58528504       0.00000000
C       14.04265791      11.99397593       0.00000000
C       12.81911571      13.00722320       0.00000000
C       12.15837771      14.58580054       0.00000000
C       13.37906080      15.43439172       0.00000000
C       13.05502118      16.89924996       0.00000000
C       11.83115789      17.69679362       0.00000000
C       11.78554243      19.07544521       0.00000000
C       13.18511710      19.69403824       0.00000000
C       13.12085110      20.95137591       0.00000000
C       15.24624040       0.42878463       0.00000000
C       15.13296597       1.72896838       0.00000000
C       16.34562937       2.42595103       0.00000000
C       16.38674601       3.75137955       0.00000000
C       15.26453687       4.42162047       0.00000000
C       15.34001465       5.80604459       0.00000000
C       16.59167719       6.55664849       0.00000000
C       16.70308384       7.86822187       0.00000000
C       15.48613896       8.58464982       0.00000000
C       15.38183524       9.92005473       0.00000000
C       16.68835370      10.61081684       0.00000000
C       16.51261512      11.98693676       0.00000000
C       15.28619813      12.94846470       0.00000000
C       14.61985333      14.53081555       0.00000000
C       15.89979290      15.49235956       0.00000000
C       15.49609010      16.97737713       0.00000000
C       14.26290548      17.71487772       0.00000000
C       14.38189186      19.10407162       0.00000000
C       16.53979049      19.08059147       0.00000000
C       15.54684455      20.36449692       0.00000000
C       17.72611664       0.48950264       0.00000000
C       17.53579391       1.71978158       0.00000000
C       18.74214660       2.40079540       0.00000000
C       18.77675248       3.69741815       0.00000000
C       17.69128742       4.50567615       0.00000000
C       17.76705210       5.90404380       0.00000000
C       18.98980162       6.58817008       0.00000000
C       19.15182551       7.83595851       0.00000000
C       18.00375260       8.51719679       0.00000000
C       17.86724815       9.89775524       0.00000000
C       19.09404288      10.67312592       0.00000000
C       19.01671509      12.03015826       0.00000000
C       17.78449096      12.94485155       0.00000000
C       17.08352504      14.56577876       0.00000000
C       18.41631460      15.26068343       0.00000000
C       18.16744050      15.96457092       0.00000000
C       17.90763500      17.11748764       0.00000000
C       16.80408360      17.76259150       0.00000000
C       17.99438768      19.67538198       0.00000000
C       18.10301240      20.95407209       0.00000000
C       20.00652764       0.59277661       0.00000000
C       19.92146682       1.79484411       0.00000000
C       20.91966362       2.54769193       0.00000000
C       20.91246306       3.88156100       0.00000000
C       20.02683465       4.50208941       0.00000000
C       20.10808370       5.93155828       0.00000000
C       20.92912566       6.59129600       0.00000000
C       21.03072041       8.01619936       0.00000000
C       20.33510556       8.47678422       0.00000000
C       20.13737662       9.91393564       0.00000000
C       20.93408899      10.54231460       0.00000000
C       20.87901248      12.28315806       0.00000000
C       19.96578995      13.19240109       0.00000000
C       19.48119471      14.68298193       0.00000000
C       20.83959888      15.64380117       0.00000000
C       20.83633584      17.04350808       0.00000000
C       19.32827760      17.63338112       0.00000000
C       19.26193450      19.13211873       0.00000000
C       20.85875213      19.65577118       0.00000000
C       20.89244289      20.94563846       0.00000000
