180
Lattice="21.92079207920792 0.0 0.0 0.0 21.093292012967517 0.0 0.0 0.0 11.881188118811881" Properties=species:S:1:pos:R:3 pbc="T T T"
C        0.69748432       0.65440758       0.00000000
C        0.24799598       2.22340310       0.00000000
C        1.65631917       2.15035315       0.00000000
C        1.72075798       3.58644286       0.00000000
C        0.44359629       4.23841170       0.00000000
C        0.48081650       5.87009296       0.00000000
C        1.85823207       6.31139251       0.00000000
C        1.97724843       7.70068253       0.00000000
C        0.47772367       8.15941593       0.00000000
C        0.61400917       9.85758124       0.00000000
C        1.93795346      10.45871743       0.00000000
C        1.87393284      11.92054379       0.00000000
C        0.47154545      12.46768702       0.00000000
C        0.40784994      14.14373148       0.00000000
C        1.05736443      15.49193255       0.00000000
C        1.94557397      17.47126401       0.00000000
C        0.48026213      16.89430048       0.00000000
C        0.30039420      18.76513388       0.00000000
C        1.47281096      19.75417042       0.00000000
C        0.63092259      20.42942949       0.00000000
C        3.00949017       0.46332533       0.00000000
C        2.92287629       1.67677244       0.00000000
C        4.05796995       2.31060197       0.00000000
C        4.14282497       3.64460173       0.00000000
C        2.95844578       4.35586653       0.00000000
C        3.10142041       5.71311559       0.00000000
C        4.32259294       6.37857020       0.00000000
C        4.45331230       7.69900670       0.00000000
C        3.19233223       8.35813075       0.00000000
C        3.18951747       9.74134566       0.00000000
C        4.32545371      10.52461993       0.00000000
C        4.26618004      11.95884746       0.00000000
C        2.96089445      12.79010965       0.00000000
C        2.43094695      14.47789166       0.00000000
C        3.52097187      15.34516779       0.00000000
C        4.47609545      17.62628721       0.00000000
C        3.34592423      16.83897755       0.00000000
C        2.09605449      18.91946114       0.00000000
C        3.40787473      19.63436440       0.00000000
C        3.05048024      20.64937413       0.00000000
C        5.35470984       0.49706782       0.00000000
C        5.27871816       1.73945520       0.00000000
C        6.45653645       2.31567973       0.00000000
C        6.51666664       3.67315005       0.00000000
C        5.38602241       4.38853136       0.00000000
C        5.50454937       5.71279739       0.00000000
C        6.71474947       6.38852657       0.00000000
C        6.85230003       7.69880045       0.00000000
C        5.64895558       8.36432731       0.00000000
C        5.57861586       9.77797032       0.00000000
C        6.78004342      10.55453031       0.00000000
C        6.69601786      11.97999810       0.00000000
C        5.37877599      12.80834980       0.00000000
C        4.84502027      14.49409078       0.00000000
C        5.94590725      15.31837212       0.00000000
C        6.84610577      17.54877868       0.00000000
C        5.76943076      16.79865372       0.00000000
C        4.52038409      19.06142803       0.00000000
C        5.90896369      19.58185156       0.00000000
C        5.64038141      20.60874994       0.00000000
C        7.68614235       0.49230744       0.00000000
C        7.71865812       1.73167218       0.00000000
C        8.84419759       2.36547314       0.00000000
C        8.98698727       3.70634713       0.00000000
C        7.77893593       4.38867200       0.00000000
C        7.90409899       5.72576614       0.00000000
C        9.15000520       6.38637072       0.00000000
C        9.32831514       7.70173090       0.00000000
C        8.03251857       8.37266969       0.00000000
C        8.01578947       9.77760201       0.00000000
C        9.19419429      10.55985385       0.00000000
C        9.10663928      12.00423356       0.00000000
C        7.81638661      12.82854583       0.00000000
C        7.27592005      14.50649895       0.00000000
C        8.38452730      15.36848151       0.00000000
C        8.15865927      16.81997377       0.00000000
C        6.83132484      18.78909857       0.00000000
C        7.71418549      19.59755082       0.00000000
C        9.20435413      19.01128490       0.00000000
C        8.34756080      20.53394901       0.00000000
C       10.30472438       0.49824909       0.00000000
C       10.06006307       1.71844815       0.00000000
C       11.31244970       2.33696961       0.00000000
C       11.42889296       3.72636345       0.00000000
C       10.23895408       4.38873552       0.00000000
C       10.33815475       5.71562278       0.00000000
C       11.57358144       6.43833692       0.00000000
C       11.79739212       7.70213015       0.00000000
C       10.53317034       8.36556417       0.00000000
C       10.43755763       9.78534710       0.00000000
C       11.58286275      10.60016837       0.00000000
C       11.58897602      12.00720106       0.00000000
C       10.24412654      12.82326139       0.00000000
C        9.72503583      14.53612633       0.00000000
C       10.80704431      15.37586406       0.00000000
C       10.60694237      16.84277991       0.00000000
C        9.29562607      17.63047493       0.00000000
C       10.39097773      19.61590053       0.00000000
C       11.70393854      19.17338326       0.00000000
C       10.67276183      20.66864221       0.00000000
C       12.63279581       0.50484831       0.00000000
C       12.60018644       1.73840891       0.00000000
C       13.78552186       2.37067961       0.00000000
C       13.84228682       3.70983605       0.00000000
C       12.69837167       4.38883140       0.00000000
C       12.79666885       5.74321070       0.00000000
C       14.01002129       6.41799889       0.00000000
C       14.16171589       7.76144307       0.00000000
C       12.86589992       8.44205915       0.00000000
C       12.89608237       9.88472271       0.00000000
C       14.11595384      10.64361281       0.00000000
C       13.96448192      12.03609012       0.00000000
C       12.65418283      12.88823388       0.00000000
C       12.13417285      14.53191245       0.00000000
C       13.19858811      15.36672470       0.00000000
C       13.04547516      16.86072323       0.00000000
C       11.72928475      17.63394818       0.00000000
C       11.81589638      18.88365421       0.00000000
C       12.88209471      20.15452259       0.00000000
C       14.20955278      20.96356025       0.00000000
C       15.26480332       0.44657252       0.00000000
C       14.94280172       1.67718933       0.00000000
C       16.13521094       2.36723104       0.00000000
C       16.28726593       3.72614539       0.00000000
C       15.10578112       4.42454779       0.00000000
C       15.24092489       5.79589524       0.00000000
C       16.43564603       6.55247266       0.00000000
C       16.63652084       7.81941741       0.00000000
C       15.34966254       8.50738207       0.00000000
C       15.33055557       9.89864314       0.00000000
C       16.48353778      10.61881970       0.00000000
C       16.43492742      12.03315366       0.00000000
C       15.10449860      12.85681478       0.00000000
C       14.56456591      14.57176266       0.00000000
C       15.73206759      15.43403989       0.00000000
C       15.44229164      16.89921474       0.00000000
C       14.14519658      17.67096445       0.00000000
C       14.21501444      19.09432321       0.00000000
C       16.65794274      19.06575067       0.00000000
C       15.58740554      20.17419194       0.00000000
C       17.58903016       0.49906580       0.00000000
C       17.37623093       1.75675433       0.00000000
C       18.59267515       2.35297093       0.00000000
C       18.75702580       3.72415363       0.00000000
C       17.54729149       4.46186218       0.00000000
C       17.67528686       5.88642492       0.00000000
C       18.96411228       6.54549967       0.00000000
C       19.06158973       7.87799230       0.00000000
C       17.77515780       8.53333568       0.00000000
C       17.76062428       9.91499385       0.00000000
C       18.99846381      10.62508878       0.00000000
C       18.93516776      12.12656048       0.00000000
C       17.55642550      12.86504061       0.00000000
C       17.02640654      14.56307703       0.00000000
C       18.11697553      15.31919475       0.00000000
C       18.07863026      15.93378275       0.00000000
C       17.86386668      17.07831709       0.00000000
C       16.55517728      17.70773723       0.00000000
C       18.98877698      19.17581068       0.00000000
C       17.89534809      20.37194150       0.00000000
C       19.89140132       0.57735287       0.00000000
C       19.93017810       1.87767345       0.00000000
C       20.98857281       2.54235446       0.00000000
C       20.97710849       3.56746684       0.00000000
C       19.95435052       4.53006652       0.00000000
C       20.16802196       5.89349057       0.00000000
C       20.95754552       7.20362908       0.00000000
C       21.33713879       8.03053865       0.00000000
C       20.17358509       8.54968075       0.00000000
C       20.15119119       9.88698316       0.00000000
C       20.94903694      11.15336757       0.00000000
C       20.95364491      12.36286420       0.00000000
C       19.88787679      13.25002145       0.00000000
C       19.46344848      14.83387790       0.00000000
C       20.92248926      14.87734392       0.00000000
C       20.86523536      16.47555298       0.00000000
C       19.22954144      17.54330910       0.00000000
C       20.51128643      18.16640942       0.00000000
C       20.92088335      19.59982512       0.00000000
C       20.97096893      20.68696251       0.00000000
