180
Lattice="22.14 0.0 0.0 0.0 21.304224933097192 0.0 0.0 0.0 12.0" Properties=species:S:1:pos:R:3 pbc="T T T"
C        1.18848646       0.91611646       0.00000000
C        1.22135123       2.21518668       0.00000000
C        2.36507263       2.96069130       0.00000000
C        2.35680897       4.31471794       0.00000000
C        1.16475312       5.04962737       0.00000000
C        1.15374991       6.45669507       0.00000000
C        2.24092894       7.30962225       0.00000000
C        2.25466088       8.63651850       0.00000000
C        1.20432438       9.44081651       0.00000000
C        1.08893221      10.76818020       0.00000000
C        2.24087413      11.57784156       0.00000000
C        2.14814470      12.99360993       0.00000000
C        1.03175745      13.83331371       0.00000000
C        0.93175488      15.28011451       0.00000000
C        2.06381384      16.03525256       0.00000000
C        2.02975039      17.32120192       0.00000000
C        0.99933360      18.15392142       0.00000000
C        0.89312789      19.53953054       0.00000000
C        1.98191785      20.23616338       0.00000000
C        2.26061140       0.23304034       0.00000000
C        3.39060921       0.92295996       0.00000000
C        3.44411565       2.19188159       0.00000000
C        4.66546875       2.94619468       0.00000000
C        4.66027670       4.35872916       0.00000000
C        3.50416425       5.17851884       0.00000000
C        3.33842397       6.56196837       0.00000000
C        4.55988975       7.29076833       0.00000000
C        4.57470237       8.68206182       0.00000000
C        3.37661131       9.40938174       0.00000000
C        3.35200431      10.84168828       0.00000000
C        4.51608691      11.58733110       0.00000000
C        4.41971469      13.01998264       0.00000000
C        3.23717559      13.85813885       0.00000000
C        3.17538835      15.25433182       0.00000000
C        4.40089885      15.97789721       0.00000000
C        4.37182151      17.39699433       0.00000000
C        3.18928175      18.14603866       0.00000000
C        3.04441777      19.52847394       0.00000000
C        4.30158664      20.30627296       0.00000000
C        4.59441282       0.23527359       0.00000000
C        5.83808975       0.95743959       0.00000000
C        5.83277084       2.25711995       0.00000000
C        7.07187328       2.97186462       0.00000000
C        7.11101047       4.32833427       0.00000000
C        5.88330907       5.14389083       0.00000000
C        5.80868328       6.53190251       0.00000000
C        7.02402459       7.30588106       0.00000000
C        6.99799062       8.71206932       0.00000000
C        5.81559179       9.41538924       0.00000000
C        5.74823361      10.83060221       0.00000000
C        6.97466481      11.55067581       0.00000000
C        6.85914500      13.05299946       0.00000000
C        5.65971840      13.87425570       0.00000000
C        5.57931639      15.30938342       0.00000000
C        6.77969961      16.03647056       0.00000000
C        6.75813061      17.36445342       0.00000000
C        5.56187571      18.24264879       0.00000000
C        5.54366937      19.62683754       0.00000000
C        6.76456948      20.29631139       0.00000000
C        6.96426834       0.28127108       0.00000000
C        8.23977668       0.94395900       0.00000000
C        8.32317610       2.26798064       0.00000000
C        9.55449509       2.98892707       0.00000000
C        9.54689501       4.39451416       0.00000000
C        8.32440387       5.08063440       0.00000000
C        8.27319184       6.52971730       0.00000000
C        9.48052770       7.38440609       0.00000000
C        9.41630551       8.72932230       0.00000000
C        8.25535606       9.46159246       0.00000000
C        8.19210157      10.82952164       0.00000000
C        9.43300113      11.57339432       0.00000000
C        9.31364039      13.07943611       0.00000000
C        8.06908679      13.85322878       0.00000000
C        8.02506145      15.24462588       0.00000000
C        9.32245557      16.01537545       0.00000000
C        9.23116746      17.43003626       0.00000000
C        8.05071927      18.25620715       0.00000000
C        7.94319882      19.59614284       0.00000000
C        9.16992332      20.30037816       0.00000000
C        9.44842598       0.25476689       0.00000000
C       10.70799911       0.94066901       0.00000000
C       10.77715604       2.29721778       0.00000000
C       11.95963837       3.02352910       0.00000000
C       11.94682544       4.37742890       0.00000000
C       10.75590441       5.20859122       0.00000000
C       10.59900610       6.54342821       0.00000000
C       11.87059017       7.35272774       0.00000000
C       11.91579757       8.71217059       0.00000000
C       10.70596857       9.41743617       0.00000000
C       10.66515522      10.86212485       0.00000000
C       11.79800467      11.68948219       0.00000000
C       11.77401029      13.08701078       0.00000000
C       10.52839616      13.91945928       0.00000000
C       10.48159428      15.32561315       0.00000000
C       11.67446796      16.11829087       0.00000000
C       11.64914557      17.45881411       0.00000000
C       10.42765591      18.25275423       0.00000000
C       10.39322751      19.63528929       0.00000000
C       11.62524929      20.38141089       0.00000000
C       11.92897405       0.31829679       0.00000000
C       13.23800991       0.95169312       0.00000000
C       13.13959638       2.27367010       0.00000000
C       14.44306709       3.02512338       0.00000000
C       14.44495060       4.42569087       0.00000000
C       13.21536125       5.18105957       0.00000000
C       13.15577026       6.55612778       0.00000000
C       14.34894660       7.37345757       0.00000000
C       14.37817935       8.72808575       0.00000000
C       13.18688962       9.49584267       0.00000000
C       13.02926721      10.91534643       0.00000000
C       14.33887095      11.58518660       0.00000000
C       14.21427373      13.05920971       0.00000000
C       12.95920235      13.91606536       0.00000000
C       12.91457759      15.34017225       0.00000000
C       14.19272789      16.16364708       0.00000000
C       14.13643177      17.49466508       0.00000000
C       12.90573547      18.24234698       0.00000000
C       12.83818357      19.64774949       0.00000000
C       14.04942158      20.40482913       0.00000000
C       14.42476798       0.25408318       0.00000000
C       15.62428224       1.00173150       0.00000000
C       15.66870101       2.29470969       0.00000000
C       16.86564022       3.06884218       0.00000000
C       16.88349531       4.45589238       0.00000000
C       15.65690066       5.19752109       0.00000000
C       15.54876676       6.64560187       0.00000000
C       16.74883190       7.42730296       0.00000000
C       16.84883405       8.77076115       0.00000000
C       15.60922313       9.48696175       0.00000000
C       15.56582876      10.84190205       0.00000000
C       16.76700350      11.71927553       0.00000000
C       16.60321183      13.08713284       0.00000000
C       15.40901632      13.96598620       0.00000000
C       15.37116488      15.36661132       0.00000000
C       16.57481857      16.12100544       0.00000000
C       16.57243425      17.49152465       0.00000000
C       15.37901379      18.25535476       0.00000000
C       15.29472598      19.64140730       0.00000000
C       16.50069488      20.38802993       0.00000000
C       16.82797650       0.29720452       0.00000000
C       18.04911618       0.98469596       0.00000000
C       18.10160244       2.29181220       0.00000000
C       19.34627879       3.08726326       0.00000000
C       19.33758401       4.46730149       0.00000000
C       18.13451937       5.20463770       0.00000000
C       18.05453773       6.63840212       0.00000000
C       19.27663138       7.45163652       0.00000000
C       19.23610517       8.77848972       0.00000000
C       18.14235782       9.50140908       0.00000000
C       17.98396134      10.83915267       0.00000000
C       19.17408841      11.68623034       0.00000000
C       19.07516387      13.13480633       0.00000000
C       17.84869386      13.91001263       0.00000000
C       17.77868911      15.40474740       0.00000000
C       19.00878052      16.13203292       0.00000000
C       19.10046098      17.48438803       0.00000000
C       17.84789104      18.21553185       0.00000000
C       17.69793163      19.68114698       0.00000000
C       18.99703039      20.41410657       0.00000000
C       19.25371902       0.30935008       0.00000000
C       20.51031995       0.98811208       0.00000000
C       20.51551146       2.36573086       0.00000000
C       21.78720755       3.12597614       0.00000000
C       21.78426771       4.37354919       0.00000000
C       20.54704770       5.19798166       0.00000000
C       20.45685706       6.63053863       0.00000000
C       21.68535355       7.46799947       0.00000000
C       21.75001876       8.70921523       0.00000000
C       20.50713083       9.51617718       0.00000000
C       20.43926151      10.91319842       0.00000000
C       21.61439779      11.74825649       0.00000000
C       21.59995056      13.12117292       0.00000000
C       20.34200807      13.92363179       0.00000000
C       20.29501902      15.38865441       0.00000000
C       21.47410043      16.22318588       0.00000000
C       21.53145628      17.51461750       0.00000000
C       20.31963381      18.27409975       0.00000000
C       20.23600330      19.65939096       0.00000000
C       21.60963772      20.45973237       0.00000000
C       21.95548610       0.19125062       0.00000000
