180
Lattice="22.14 0.0 0.0 0.0 21.304224933097192 0.0 0.0 0.0 12.0" Properties=species:S:1:pos:R:3 pbc="T T T"
C        1.08010119       0.44892742       0.00000000
C        0.74999014       1.94420668       0.00000000
C        2.13351367       2.38208806       0.00000000
C        2.12425458       3.72376858       0.00000000
C        0.91040064       4.37295538       0.00000000
C        0.76239760       6.14402155       0.00000000
C        2.29667819       6.46876041       0.00000000
C        2.33724232       7.95794843       0.00000000
C        0.91024440       8.37137650       0.00000000
C        0.87098751      10.31994927       0.00000000
C        2.35588056      10.72864206       0.00000000
C        2.28261186      12.23719226       0.00000000
C        0.85484714      12.88411986       0.00000000
C        0.59332316      14.82491206       0.00000000
C        1.48314444      15.82533127       0.00000000
C        1.08708687      17.26367928       0.00000000
C        0.10511612      18.27653618       0.00000000
C        0.76824515      19.87915845       0.00000000
C        2.38297415      19.56162392       0.00000000
C        1.19367315      21.28989206       0.00000000
C        3.44575318       0.28040728       0.00000000
C        3.31051458       1.67710417       0.00000000
C        4.43043416       2.46212992       0.00000000
C        4.49859799       3.72012518       0.00000000
C        3.37279652       4.42752631       0.00000000
C        3.46044168       5.81303447       0.00000000
C        4.67694201       6.58299532       0.00000000
C        4.87583607       7.85692506       0.00000000
C        3.66400567       8.50905641       0.00000000
C        3.58123583       9.99044546       0.00000000
C        4.79515857      10.85973658       0.00000000
C        4.63212736      12.29537220       0.00000000
C        3.32455524      13.17734425       0.00000000
C        2.78541758      14.86111094       0.00000000
C        5.25619725      14.96422019       0.00000000
C        3.91217499      15.75771398       0.00000000
C        3.63489586      17.27250003       0.00000000
C        2.34058309      18.04659714       0.00000000
C        4.64689772      19.57602577       0.00000000
C        3.60963865      21.08270650       0.00000000
C        5.83552071       0.47328040       0.00000000
C        5.63867230       1.81277645       0.00000000
C        6.86895239       2.46626370       0.00000000
C        6.98585819       3.78626537       0.00000000
C        5.81729185       4.41638274       0.00000000
C        5.83626622       5.82331998       0.00000000
C        7.09565583       6.56679151       0.00000000
C        7.37125219       7.89374630       0.00000000
C        6.12086419       8.61006709       0.00000000
C        5.98000708      10.06273906       0.00000000
C        7.24618779      10.83952178       0.00000000
C        7.22021995      12.27018313       0.00000000
C        6.04068014      12.76381439       0.00000000
C        5.63316274      13.57626221       0.00000000
C        7.71252104      14.95476427       0.00000000
C        6.42024442      15.77793104       0.00000000
C        6.18852854      17.26962915       0.00000000
C        4.88260477      18.06572665       0.00000000
C        7.17426205      19.53753546       0.00000000
C        6.13404615      20.96343822       0.00000000
C        8.27188336       0.39571629       0.00000000
C        8.15452853       1.75639150       0.00000000
C        9.41708489       2.53649867       0.00000000
C        9.44022236       3.81429286       0.00000000
C        8.28216191       4.52754649       0.00000000
C        8.35731476       5.93155831       0.00000000
C        9.67742088       6.58362397       0.00000000
C        9.85238505       7.90087197       0.00000000
C        8.60128918       8.66076479       0.00000000
C        8.49463418      10.06317968       0.00000000
C        9.72274933      10.86431596       0.00000000
C        9.72883076      12.27821296       0.00000000
C        8.58543564      12.82584930       0.00000000
C        8.05139615      13.56874018       0.00000000
C       10.22759415      15.04708376       0.00000000
C        8.89564950      15.82496139       0.00000000
C        8.63638961      17.29005329       0.00000000
C        7.35277103      18.05881330       0.00000000
C        9.73574179      19.54702656       0.00000000
C        8.63630738      20.95687990       0.00000000
C       10.81833645       0.29709381       0.00000000
C       10.68730897       1.74267203       0.00000000
C       11.94691706       2.50644042       0.00000000
C       11.96929273       3.81352184       0.00000000
C       10.83087364       4.50162586       0.00000000
C       10.85773065       5.92215126       0.00000000
C       12.20578515       6.66803349       0.00000000
C       12.37815461       7.93531911       0.00000000
C       11.13156833       8.62887238       0.00000000
C       10.95657744      10.09237206       0.00000000
C       12.24186409      10.88216306       0.00000000
C       12.26248447      12.29435848       0.00000000
C       11.07764843      12.87539038       0.00000000
C       10.52522536      13.73514222       0.00000000
C       12.73151314      15.05389644       0.00000000
C       11.40007752      15.82017024       0.00000000
C       11.16753102      17.30452074       0.00000000
C        9.85096630      18.09583638       0.00000000
C       12.11759384      19.58375795       0.00000000
C       11.14908335      21.09061755       0.00000000
C       13.34985634       0.21745945       0.00000000
C       13.22721805       1.69638314       0.00000000
C       14.49623018       2.48620961       0.00000000
C       14.44403413       3.81908074       0.00000000
C       13.34594548       4.56543202       0.00000000
C       13.36934784       5.99804578       0.00000000
C       14.70872251       6.70739427       0.00000000
C       14.83794446       8.00928587       0.00000000
C       13.58328414       8.67231275       0.00000000
C       13.47747783      10.12148080       0.00000000
C       14.76101067      10.95686762       0.00000000
C       14.75919966      12.32031905       0.00000000
C       13.62069626      12.86845074       0.00000000
C       13.07378861      13.66521573       0.00000000
C       15.26933261      14.98661014       0.00000000
C       13.91198907      15.78710553       0.00000000
C       13.65621770      17.28882360       0.00000000
C       12.38570141      18.13970122       0.00000000
C       14.70370804      19.59489155       0.00000000
C       13.66415392      21.12757250       0.00000000
C       15.86734594       0.30707102       0.00000000
C       15.71150824       1.76018347       0.00000000
C       16.98480988       2.50574627       0.00000000
C       16.99104226       3.83783479       0.00000000
C       15.85366694       4.53585283       0.00000000
C       15.87430836       5.96094811       0.00000000
C       17.23751812       6.79432101       0.00000000
C       17.35583345       8.07265332       0.00000000
C       16.11506573       8.78125711       0.00000000
C       16.00451787      10.18134226       0.00000000
C       17.25965807      10.93714398       0.00000000
C       17.28723603      12.34652935       0.00000000
C       16.14979372      12.86350816       0.00000000
C       15.63213434      13.50192687       0.00000000
C       17.78004006      15.04488601       0.00000000
C       16.48604435      15.88035648       0.00000000
C       16.17051864      17.39724667       0.00000000
C       14.87046400      18.13863937       0.00000000
C       17.25960035      19.54056160       0.00000000
C       16.17324623      21.00834996       0.00000000
C       18.33716053       0.35831743       0.00000000
C       18.22963923       1.75830426       0.00000000
C       19.48058474       2.55109797       0.00000000
C       19.50393213       3.87302618       0.00000000
C       18.36899944       4.60023111       0.00000000
C       18.43790448       6.05131327       0.00000000
C       19.74490912       6.79228285       0.00000000
C       19.89552746       8.07156086       0.00000000
C       18.63401763       8.75682443       0.00000000
C       18.53779741      10.15843295       0.00000000
C       19.81063714      10.98662408       0.00000000
C       19.85219833      12.39020522       0.00000000
C       18.72453343      12.89969865       0.00000000
C       18.14205167      13.62737144       0.00000000
C       20.33422234      15.19613457       0.00000000
C       18.93214932      15.87585068       0.00000000
C       18.70267834      17.37265049       0.00000000
C       17.47379424      18.14500189       0.00000000
C       19.80323003      19.68937142       0.00000000
C       18.79511149      21.18290252       0.00000000
C       20.82963501       0.49134400       0.00000000
C       20.75091197       1.76638273       0.00000000
C       21.91436230       2.54481887       0.00000000
C       21.87443382       3.90247861       0.00000000
C       20.86796596       4.62447554       0.00000000
C       20.89666411       6.06150662       0.00000000
C       21.92614709       6.72400739       0.00000000
C       21.91691277       8.23529863       0.00000000
C       21.01869213       8.90729004       0.00000000
C       20.96766060      10.21874742       0.00000000
C       21.89730763      10.98467141       0.00000000
C       21.90009764      12.34230501       0.00000000
C       21.04008813      13.16169042       0.00000000
C       20.45851818      13.82110777       0.00000000
C       21.87207013      15.95164619       0.00000000
C       21.89783785      15.86800918       0.00000000
C       21.18463550      17.43283974       0.00000000
C       19.89725510      18.24726544       0.00000000
C       21.85744386      20.19080185       0.00000000
C       21.86399311      21.67010694       0.00000000
