180
Lattice="22.14 0.0 0.0 0.0 21.304224933097192 0.0 0.0 0.0 12.0" Properties=species:S:1:pos:R:3 pbc="T T T"
C        0.97890478      -0.46527069       0.00000000
C        0.03662757       2.28273416       0.00000000
C        1.71011492       1.63675233       0.00000000
C        1.67415454       4.12618100       0.00000000
C       -0.53376725       4.35075150       0.00000000
C        1.11365173       6.47951910       0.00000000
C        1.61628815       6.41495732       0.00000000
C        0.99885564       7.81361713       0.00000000
C       -0.70481231       8.98288060       0.00000000
C       -0.20981559      10.25233326       0.00000000
C        1.57314804      11.08910688       0.00000000
C        1.47015067      12.21402742       0.00000000
C        0.45501997      12.37933847       0.00000000
C        0.45067630      14.63861354       0.00000000
C        0.96440872      14.78720555       0.00000000
C        1.38630473      16.20494302       0.00000000
C       -0.45496755      17.31901867       0.00000000
C       -0.07437487      18.96394143       0.00000000
C        1.37526663      19.48243520       0.00000000
C        1.14397883      20.82952606       0.00000000
C        2.98910204       0.91542180       0.00000000
C        2.95398453       1.29290895       0.00000000
C        4.67077123       1.90209254       0.00000000
C        4.33258830       3.83108346       0.00000000
C        3.07893660       6.00438225       0.00000000
C        2.65784624       6.17951242       0.00000000
C        3.92761331       6.24728045       0.00000000
C        4.68919932       7.50452946       0.00000000
C        3.32125866       8.81413611       0.00000000
C        3.04483040      10.65636686       0.00000000
C        4.31087555      10.63637256       0.00000000
C        3.92356611      11.03212568       0.00000000
C        1.79952031      13.01398514       0.00000000
C        2.70835919      14.66890805       0.00000000
C        4.54988301      15.20522214       0.00000000
C        4.45028301      16.32393969       0.00000000
C        3.17330959      16.50400050       0.00000000
C        2.62117295      19.00987578       0.00000000
C        3.94832573      19.37363192       0.00000000
C        3.99016865      20.84687714       0.00000000
C        6.13707519      -0.66964261       0.00000000
C        4.49418472       2.04108444       0.00000000
C        6.62993257       1.87736791       0.00000000
C        7.83010482       3.55157247       0.00000000
C        5.70168460       4.27707969       0.00000000
C        5.72041701       6.44951800       0.00000000
C        6.96226205       6.59713887       0.00000000
C        6.48953444       8.34739319       0.00000000
C        5.04230344      10.04561016       0.00000000
C        5.17289314      10.12786357       0.00000000
C        6.15356895      10.37197644       0.00000000
C        7.02377231      11.23010220       0.00000000
C        5.96393604      12.03480349       0.00000000
C        5.60248985      14.55560927       0.00000000
C        6.30908044      14.62538067       0.00000000
C        6.37413129      15.44185857       0.00000000
C        5.18814408      16.94219249       0.00000000
C        5.18930151      19.01493264       0.00000000
C        6.39522201      19.65755718       0.00000000
C        6.20429209      20.85301839       0.00000000
C        7.57613719       0.62144666       0.00000000
C        6.76001789       1.05095881       0.00000000
C        9.86242204       2.28261276       0.00000000
C        7.59579092       4.14696213       0.00000000
C        7.54478699       5.67301684       0.00000000
C        7.67354527       5.88540361       0.00000000
C        8.42381431       6.67938895       0.00000000
C        9.36462430       7.78173468       0.00000000
C        7.88102472       9.35396594       0.00000000
C        8.02488025      11.15907847       0.00000000
C        9.36438581      10.77028079       0.00000000
C        8.72495017      12.03452380       0.00000000
C        7.42888370      12.68303242       0.00000000
C        7.65056832      14.57522707       0.00000000
C        9.14091541      15.23129142       0.00000000
C        9.35128360      16.81926566       0.00000000
C        7.47653735      16.34461654       0.00000000
C        7.95927003      18.84553535       0.00000000
C        8.88081159      19.53762861       0.00000000
C        8.64125403      20.89846270       0.00000000
C       10.71657454      -0.08371117       0.00000000
C       10.20078070       1.01942367       0.00000000
C       10.55636061       2.14524640       0.00000000
C       11.91117389       4.40549976       0.00000000
C        9.50959837       5.09686320       0.00000000
C        9.95541833       6.86717689       0.00000000
C       11.68173772       6.31196490       0.00000000
C       11.24561862       7.89795488       0.00000000
C       10.37913214       8.48358606       0.00000000
C       10.20450445      10.24457284       0.00000000
C       10.94766019      10.62621240       0.00000000
C       11.15005203      11.84450557       0.00000000
C        9.98884454      12.22352729       0.00000000
C        9.49458455      14.26690308       0.00000000
C       11.51686590      14.60529258       0.00000000
C       10.78262795      16.29965458       0.00000000
C        9.97823628      16.79883009       0.00000000
C       10.02762429      18.17007536       0.00000000
C       11.50503337      19.49265554       0.00000000
C       11.24146855      20.61865719       0.00000000
C       11.83829379      -0.94019658       0.00000000
C       11.64157670       1.56686348       0.00000000
C       14.99634379       2.17865039       0.00000000
C       13.03364016       3.50408322       0.00000000
C       12.73155248       4.68970896       0.00000000
C       12.28536041       5.76270091       0.00000000
C       12.73149546       6.37801244       0.00000000
C       13.82054305       8.00762994       0.00000000
C       12.67475701       8.24619581       0.00000000
C       12.35322996      10.14162182       0.00000000
C       13.44819338      10.60430638       0.00000000
C       13.16954724      11.78797666       0.00000000
C       12.63141587      12.73926120       0.00000000
C       12.51984381      13.84224925       0.00000000
C       13.55700426      14.81036057       0.00000000
C       13.80940191      16.40679733       0.00000000
C       12.16785613      16.65084886       0.00000000
C       13.06408238      18.61198917       0.00000000
C       13.83605062      19.53455015       0.00000000
C       13.73110713      20.81740680       0.00000000
C       15.09369920      -0.64368312       0.00000000
C       14.57216083       1.10278421       0.00000000
C       15.23130569       2.21603185       0.00000000
C       15.69644145       3.32227690       0.00000000
C       14.88646896       4.57589417       0.00000000
C       15.09628232       6.48938871       0.00000000
C       16.71187069       6.65435244       0.00000000
C       16.29252415       7.62397329       0.00000000
C       14.95072007       8.95142253       0.00000000
C       14.95430048       9.86868248       0.00000000
C       15.66082750      10.63128365       0.00000000
C       16.09554574      11.45300086       0.00000000
C       13.88221477      12.90422448       0.00000000
C       14.60840619      14.22556959       0.00000000
C       16.02480384      14.68019750       0.00000000
C       16.25979542      16.22347327       0.00000000
C       14.85139153      16.51249590       0.00000000
C       15.10732643      18.83949384       0.00000000
C       16.49716803      19.37522865       0.00000000
C       16.09769228      20.79632668       0.00000000
C       16.81975163      -0.67100151       0.00000000
C       17.18799782       2.02144894       0.00000000
C       19.46435028       2.21305322       0.00000000
C       18.68526481       3.89221931       0.00000000
C       17.83883820       5.42272761       0.00000000
C       17.74395752       5.99672438       0.00000000
C       18.52567990       6.66326479       0.00000000
C       19.04870326       7.60152099       0.00000000
C       16.44864132       9.65536244       0.00000000
C       17.26065565      10.83811505       0.00000000
C       18.68704061      10.81100261       0.00000000
C       18.60750989      12.16341035       0.00000000
C       18.05533296      12.71091437       0.00000000
C       17.78557265      14.65704577       0.00000000
C       18.68577146      14.82820381       0.00000000
C       19.45194331      16.50407324       0.00000000
C       17.13234057      16.88634431       0.00000000
C       17.75024484      18.90001265       0.00000000
C       19.07340653      19.46960760       0.00000000
C       18.80229011      20.79108223       0.00000000
C       19.82465948       0.19323525       0.00000000
C       19.85818198       2.44012551       0.00000000
C       21.13336872       2.15403367       0.00000000
C       21.11719639       3.64089769       0.00000000
C       19.76039318       4.27829448       0.00000000
C       19.83328143       6.38804154       0.00000000
C       21.03520106       6.39645228       0.00000000
C       21.04329777       7.80075195       0.00000000
C       19.98168881       8.90106330       0.00000000
C       19.92110835      10.54718602       0.00000000
C       21.05699486      10.79724370       0.00000000
C       21.07173829      12.14900811       0.00000000
C       19.93451803      12.59771638       0.00000000
C       19.90483256      14.58799654       0.00000000
C       21.22295581      15.07611850       0.00000000
C       21.04288368      16.45537705       0.00000000
C       19.82034038      17.41812730       0.00000000
C       19.85025177      18.93804119       0.00000000
C       21.14916967      19.34678388       0.00000000
C       21.19278537      20.82003727       0.00000000
