180
Lattice="22.14 0.0 0.0 0.0 21.304224933097192 0.0 0.0 0.0 12.0" Properties=species:S:1:pos:R:3 pbc="T T T"
C        0.71078088      -0.01869738       0.00000000
C        0.25014009       1.57066290       0.00000000
C        1.12496685       2.15290195       0.00000000
C        1.13072139       3.48418306       0.00000000
C        0.28783052       4.20089618       0.00000000
C        0.51744321       5.77068270       0.00000000
C        1.41418187       6.72166038       0.00000000
C        1.41761720       7.56005184       0.00000000
C        1.20399518       8.17516111       0.00000000
C       -0.47920276       9.98108765       0.00000000
C        1.59400752      11.68303452       0.00000000
C        1.79655412      12.58276009       0.00000000
C        0.42720631      13.60367566       0.00000000
C        0.66875841      14.17653093       0.00000000
C        1.52771484      15.41467527       0.00000000
C        1.95325026      15.50441974       0.00000000
C       -0.55559480      17.61636114       0.00000000
C        0.80944445      19.58256194       0.00000000
C        1.36886126      18.56626185       0.00000000
C        2.52346802      20.46950932       0.00000000
C        2.64908353       0.14618818       0.00000000
C        2.87912587       1.92021686       0.00000000
C        3.49131183       1.85174329       0.00000000
C        3.31259400       4.54101995       0.00000000
C        2.74888705       4.20498629       0.00000000
C        2.73230690       5.89637008       0.00000000
C        3.99751554       6.89126185       0.00000000
C        4.18921639       8.14114875       0.00000000
C        3.17876436       8.52174941       0.00000000
C        2.54549760      10.08156626       0.00000000
C        3.43655459      10.65231895       0.00000000
C        3.55170389      12.24255612       0.00000000
C        2.54770192      13.41692338       0.00000000
C        3.35430694      14.42887499       0.00000000
C        4.00232822      14.56995219       0.00000000
C        3.87060670      16.24097773       0.00000000
C        2.76575194      17.12486227       0.00000000
C        3.00419450      18.81072294       0.00000000
C        3.90177122      19.00841297       0.00000000
C        3.61893329      20.54416174       0.00000000
C        4.75729580       0.10755958       0.00000000
C        5.16607516       2.55233283       0.00000000
C        6.28009389       1.71909167       0.00000000
C        6.29397187       4.30153807       0.00000000
C        5.25095221       3.88389210       0.00000000
C        5.24088023       6.08622656       0.00000000
C        6.73748076       6.23507976       0.00000000
C        6.62670953       7.45265568       0.00000000
C        5.33494714       8.35687675       0.00000000
C        5.36287007      10.21665470       0.00000000
C        6.21871960      10.89877916       0.00000000
C        6.22726081      12.11148600       0.00000000
C        5.34752779      13.18889625       0.00000000
C        5.06337916      15.31206380       0.00000000
C        6.32063237      14.89630460       0.00000000
C        6.09430101      16.60357423       0.00000000
C        5.41321896      17.36198810       0.00000000
C        5.02172110      18.63659103       0.00000000
C        6.49167112      18.91670378       0.00000000
C        6.12399971      20.16801182       0.00000000
C        6.99245524       0.20624433       0.00000000
C        7.15325076       1.72540052       0.00000000
C        8.10344956       2.81688345       0.00000000
C        8.14634775       4.38415680       0.00000000
C        7.50725485       4.92271163       0.00000000
C        7.68887670       5.73406771       0.00000000
C        8.48694560       6.26834100       0.00000000
C        9.03475705       7.83142817       0.00000000
C        7.33266106       8.57328094       0.00000000
C        7.55489183       9.70192508       0.00000000
C        8.69912481      10.49288309       0.00000000
C        8.61154219      12.19074545       0.00000000
C        7.64444261      12.90418891       0.00000000
C        7.05916937      14.80911424       0.00000000
C        8.91349731      15.58471733       0.00000000
C        8.42623618      16.49361216       0.00000000
C        7.13583903      17.16493730       0.00000000
C        7.55283683      18.35728826       0.00000000
C        8.53001202      18.84141698       0.00000000
C        8.93802481      20.73198274       0.00000000
C        9.54677067       0.54814846       0.00000000
C        9.54718739       1.99707163       0.00000000
C       11.35592678       3.14482963       0.00000000
C       10.71209275       4.09984563       0.00000000
C        9.70528995       4.43126574       0.00000000
C       10.22528657       6.67481599       0.00000000
C       11.74740592       6.32099123       0.00000000
C       11.74136802       8.36161298       0.00000000
C       10.21892322       8.69483947       0.00000000
C        9.86014976      10.45161076       0.00000000
C       11.06985458      11.38356263       0.00000000
C       11.29922919      11.94744843       0.00000000
C       10.84272700      13.53023578       0.00000000
C        9.92510786      14.29459908       0.00000000
C       11.37640091      15.33801727       0.00000000
C       11.59640879      16.00606066       0.00000000
C        9.67654774      17.32449630       0.00000000
C       10.16170971      18.25587893       0.00000000
C       11.45358882      19.25470204       0.00000000
C       11.54301249      20.48423040       0.00000000
C       12.81419140       0.02357969       0.00000000
C       12.60863758       1.63254936       0.00000000
C       13.75301565       2.79124823       0.00000000
C       13.75303392       3.85335923       0.00000000
C       12.96396114       4.68244906       0.00000000
C       12.68768300       6.32586794       0.00000000
C       13.96593480       7.18060399       0.00000000
C       14.16602348       8.59265192       0.00000000
C       13.49675101       9.12593197       0.00000000
C       12.35627306      10.19786492       0.00000000
C       13.44022731      10.95055747       0.00000000
C       13.75340735      12.44872995       0.00000000
C       12.68350943      13.24892755       0.00000000
C       12.95251760      14.32780027       0.00000000
C       13.62110009      14.89168455       0.00000000
C       13.61848894      15.94125965       0.00000000
C       12.44337420      17.23982374       0.00000000
C       12.35533684      18.85647254       0.00000000
C       13.26218839      19.32252658       0.00000000
C       13.79407623      21.42939786       0.00000000
C       14.90336877       0.68616008       0.00000000
C       14.98186310       1.88978349       0.00000000
C       15.89793657       2.76459393       0.00000000
C       16.55734663       4.37442287       0.00000000
C       14.75661388       4.43358718       0.00000000
C       15.03620415       5.52158094       0.00000000
C       16.55074354       6.96284667       0.00000000
C       16.51452405       7.60880226       0.00000000
C       15.13441373       8.86786284       0.00000000
C       15.13543962      10.01852727       0.00000000
C       16.54805235      11.37876836       0.00000000
C       15.98828420      12.07278703       0.00000000
C       14.79876034      13.15805226       0.00000000
C       14.68971104      14.15140222       0.00000000
C       16.11219343      15.05641152       0.00000000
C       16.18735823      16.00947455       0.00000000
C       14.95083701      16.98902803       0.00000000
C       14.60605139      18.21744265       0.00000000
C       16.17067223      19.37009949       0.00000000
C       14.98174838      20.92277556       0.00000000
C       17.11634242       1.41956745       0.00000000
C       17.70723074       2.25413662       0.00000000
C       19.34951510       2.43073446       0.00000000
C       18.43229741       4.60584513       0.00000000
C       17.11655058       5.04677492       0.00000000
C       17.32453299       5.99575088       0.00000000
C       17.91858333       6.73223199       0.00000000
C       18.80149748       8.26033453       0.00000000
C       17.24060357       8.40543437       0.00000000
C       18.53731415      10.53718554       0.00000000
C       18.89252947      11.03621892       0.00000000
C       18.94672582      12.09945308       0.00000000
C       17.27147281      13.06711936       0.00000000
C       17.05944211      14.16164745       0.00000000
C       19.10150597      14.95244763       0.00000000
C       18.79056883      17.36734564       0.00000000
C       17.93377478      17.41316004       0.00000000
C       17.04665889      18.81020502       0.00000000
C       18.84676983      19.06887135       0.00000000
C       18.35415772      20.85195283       0.00000000
C       19.36052688       0.66118461       0.00000000
C       20.76028517       1.57218389       0.00000000
C       20.54471479       1.57922418       0.00000000
C       20.67445184       4.37446857       0.00000000
C       19.84810367       4.83285391       0.00000000
C       20.14310811       6.95497983       0.00000000
C       20.49734398       4.66279610       0.00000000
C       21.25749047       7.77206603       0.00000000
C       19.36038534       8.58165037       0.00000000
C       20.31727250       9.98186299       0.00000000
C       20.75534765      10.12957655       0.00000000
C       20.75845329      11.42892287       0.00000000
C       20.45743631      12.99916810       0.00000000
C       19.58123159      14.81440282       0.00000000
C       20.73844046      13.94685049       0.00000000
C       20.92847908      16.22646288       0.00000000
C       20.38011664      17.04462590       0.00000000
C       19.50351532      18.53588362       0.00000000
C       20.78094726      18.26585597       0.00000000
C       20.78124182      19.64788407       0.00000000
