180
Lattice="22.14 0.0 0.0 0.0 21.304224933097192 0.0 0.0 0.0 12.0" Properties=species:S:1:pos:R:3 pbc="T T T"
C        1.69092424      -0.00066435       0.00000000
C        1.39888828       1.59432723       0.00000000
C        2.62705973       2.36397206       0.00000000
C        2.68053450       3.64567040       0.00000000
C        1.55921855       4.24793734       0.00000000
C        1.52418476       5.65798277       0.00000000
C        2.87432502       6.24612364       0.00000000
C        3.00412320       7.54688885       0.00000000
C        1.82329364       8.31659733       0.00000000
C        1.68863120       9.80936246       0.00000000
C        2.95374951      10.42658100       0.00000000
C        2.83620430      11.79711526       0.00000000
C        1.60851606      12.72204117       0.00000000
C        0.96633075      14.35120547       0.00000000
C        2.13133215      15.40453042       0.00000000
C        1.78821566      16.90614864       0.00000000
C        0.56935227      17.82212875       0.00000000
C        0.16768076      18.95971157       0.00000000
C        1.66733695      19.59609049       0.00000000
C        1.97879323      21.14423028       0.00000000
C        3.84608708       0.16385968       0.00000000
C        3.72741425       1.57197996       0.00000000
C        4.78148995       2.40637889       0.00000000
C        4.90186488       3.57352795       0.00000000
C        3.84858999       4.24125087       0.00000000
C        3.89514660       5.47036352       0.00000000
C        4.98695224       6.32767807       0.00000000
C        5.23717999       7.56462539       0.00000000
C        4.10050369       8.33466240       0.00000000
C        4.04848867       9.65288852       0.00000000
C        5.17156682      10.51999276       0.00000000
C        5.02299299      11.86001400       0.00000000
C        3.85931900      12.84094208       0.00000000
C        3.32552045      14.38400425       0.00000000
C        4.43680335      15.43783042       0.00000000
C        3.98864515      16.78308864       0.00000000
C        2.95553486      17.64113587       0.00000000
C        2.80984952      18.83438355       0.00000000
C        4.09684640      19.61115072       0.00000000
C        4.12936253      21.09514838       0.00000000
C        6.20147915       0.35653029       0.00000000
C        6.05668636       1.74783364       0.00000000
C        7.30734150       2.47386909       0.00000000
C        7.34731958       3.75579469       0.00000000
C        6.08293866       4.28564155       0.00000000
C        6.27253140       5.67155084       0.00000000
C        7.53191945       6.43577437       0.00000000
C        7.72996719       7.71448958       0.00000000
C        6.45555387       8.30692913       0.00000000
C        6.38742722       9.68296195       0.00000000
C        7.69428883      10.48050085       0.00000000
C        7.47636679      11.88758691       0.00000000
C        6.20555426      12.78304950       0.00000000
C        5.68082091      14.37177999       0.00000000
C        6.78353790      15.49349887       0.00000000
C        6.39417501      16.94769183       0.00000000
C        5.14409657      17.55662499       0.00000000
C        5.25021228      18.80426828       0.00000000
C        6.51054472      19.59825184       0.00000000
C        6.52364777      21.00955131       0.00000000
C        8.69908691       0.18492697       0.00000000
C        8.56602115       1.66310346       0.00000000
C        9.77435541       2.53949487       0.00000000
C        9.84143744       3.75817957       0.00000000
C        8.68443907       4.22086973       0.00000000
C        8.74014498       5.58716417       0.00000000
C        9.97946453       6.39186359       0.00000000
C       10.24229494       7.66986552       0.00000000
C        8.96922841       8.33637338       0.00000000
C        8.88050983       9.64507024       0.00000000
C       10.07194178      10.48569112       0.00000000
C        9.93764833      11.86679021       0.00000000
C        8.66881153      12.81253949       0.00000000
C        8.10890059      14.42436515       0.00000000
C        9.25857142      15.53951327       0.00000000
C        8.87842612      16.95532527       0.00000000
C        7.61088502      17.56561951       0.00000000
C        7.67841175      18.83362608       0.00000000
C        8.96204082      19.64798861       0.00000000
C        9.01445496      21.11858592       0.00000000
C       11.17512352       0.21140449       0.00000000
C       10.97514601       1.67930300       0.00000000
C       12.20080621       2.49665181       0.00000000
C       12.23448894       3.73176890       0.00000000
C       11.06065073       4.26390657       0.00000000
C       11.17073904       5.60828612       0.00000000
C       12.40550518       6.51246218       0.00000000
C       12.62467964       7.70605940       0.00000000
C       11.46787458       8.39300538       0.00000000
C       11.25839899       9.74933842       0.00000000
C       12.54747689      10.49941297       0.00000000
C       12.40000690      11.86962320       0.00000000
C       11.13045359      12.84255092       0.00000000
C       10.54630752      14.43420751       0.00000000
C       11.68645693      15.57828880       0.00000000
C       11.29844491      16.98427704       0.00000000
C       10.07075996      17.61861442       0.00000000
C       10.11072769      18.83304727       0.00000000
C       11.38978103      19.61316622       0.00000000
C       11.46930422      21.06874139       0.00000000
C       13.56970351       0.12442470       0.00000000
C       13.41489129       1.64247585       0.00000000
C       14.62516097       2.48104457       0.00000000
C       14.64142258       3.73089172       0.00000000
C       13.50331100       4.35785462       0.00000000
C       13.62330501       5.72521836       0.00000000
C       14.94570301       6.56541544       0.00000000
C       15.02623884       7.88850941       0.00000000
C       13.75577079       8.37617691       0.00000000
C       13.74274617       9.75303249       0.00000000
C       15.00727412      10.58538594       0.00000000
C       14.77812719      11.91884633       0.00000000
C       13.53767067      12.87714224       0.00000000
C       12.97679386      14.48509814       0.00000000
C       14.10165511      15.54869208       0.00000000
C       13.75643034      16.94411594       0.00000000
C       12.53049825      17.59962264       0.00000000
C       12.55313738      18.82583325       0.00000000
C       13.84445758      19.62529118       0.00000000
C       13.95678149      20.98736182       0.00000000
C       16.00307353       0.30429133       0.00000000
C       15.88002886       1.76108541       0.00000000
C       17.08217756       2.55110695       0.00000000
C       17.22665200       3.79974264       0.00000000
C       15.97828031       4.24911296       0.00000000
C       16.04400780       5.60195873       0.00000000
C       17.30299388       6.53077534       0.00000000
C       17.60091018       7.78276672       0.00000000
C       16.34872852       8.42797358       0.00000000
C       16.14434360       9.75825352       0.00000000
C       17.41485130      10.55590579       0.00000000
C       17.27806141      11.97367633       0.00000000
C       15.97915674      12.86730082       0.00000000
C       15.42839136      14.53218490       0.00000000
C       16.68021278      15.58473894       0.00000000
C       16.14345787      17.04439350       0.00000000
C       14.88946509      17.69856548       0.00000000
C       15.03152538      18.89913149       0.00000000
C       16.34614011      19.58315491       0.00000000
C       16.26707414      20.95619733       0.00000000
C       18.44860407       0.28964403       0.00000000
C       18.25785608       1.71807072       0.00000000
C       19.48507783       2.53250432       0.00000000
C       19.42701246       3.78337603       0.00000000
C       18.39879715       4.50245416       0.00000000
C       18.56810493       5.81242403       0.00000000
C       19.80570626       6.60223114       0.00000000
C       19.87910950       7.89304733       0.00000000
C       18.69234321       8.48576228       0.00000000
C       18.66108136       9.79036759       0.00000000
C       19.92574451      10.62253042       0.00000000
C       19.68199365      11.99214425       0.00000000
C       18.46310280      12.93000872       0.00000000
C       17.92519274      14.48010828       0.00000000
C       18.98319363      15.67428820       0.00000000
C       18.60589598      17.08180738       0.00000000
C       17.42591016      17.57103172       0.00000000
C       17.48348031      18.75218783       0.00000000
C       18.66521039      19.62690516       0.00000000
C       18.91389750      20.94805470       0.00000000
C       20.76717824       0.40217991       0.00000000
C       20.79793458       1.78687960       0.00000000
C       22.47303709       2.10431953       0.00000000
C       21.85526500       3.24734166       0.00000000
C       20.72613379       4.43197764       0.00000000
C       20.94298532       5.82204436       0.00000000
C       22.11429578       6.84848507       0.00000000
C       22.58662409       8.13997933       0.00000000
C       21.13083586       8.36772008       0.00000000
C       21.01588838       9.71000138       0.00000000
C       22.25237014      10.56948808       0.00000000
C       21.46845514      12.08817425       0.00000000
C       20.65275659      13.09619554       0.00000000
C       20.16503469      14.55355345       0.00000000
C       21.34072679      15.51179855       0.00000000
C       21.08133715      17.02919421       0.00000000
C       19.78754673      17.68225666       0.00000000
C       19.80796689      18.96024729       0.00000000
C       21.18663474      19.67448968       0.00000000
C       20.93925665      21.29568547       0.00000000
