180
Lattice="22.14 0.0 0.0 0.0 21.304224933097192 0.0 0.0 0.0 12.0" Properties=species:S:1:pos:R:3 pbc="T T T"
C        0.75774238       0.99268664       0.00000000
C        0.71358964       2.69573584       0.00000000
C        1.98933678       3.02364020       0.00000000
C        2.11332001       4.52789159       0.00000000
C        0.74877604       5.09918390       0.00000000
C        0.83606200       6.81789891       0.00000000
C        1.94599104       7.49016138       0.00000000
C        2.04034233       8.90382568       0.00000000
C        0.71051880       9.32241454       0.00000000
C        0.81272367      11.03414961       0.00000000
C        1.88713258      11.75998067       0.00000000
C        1.90730039      13.20616963       0.00000000
C        0.64456271      13.82478214       0.00000000
C        0.72129859      15.50491283       0.00000000
C        1.71823531      16.28698542       0.00000000
C        1.80055615      17.63051489       0.00000000
C        0.64292861      18.19221382       0.00000000
C        0.71522041      19.86231602       0.00000000
C        1.74284259      20.62349919       0.00000000
C        1.99670960       0.56477286       0.00000000
C        3.09644169       1.04098983       0.00000000
C        3.19430708       2.45180467       0.00000000
C        4.35299366       3.11678981       0.00000000
C        4.37112798       4.57588340       0.00000000
C        3.14856808       5.33377150       0.00000000
C        3.14716627       6.73042558       0.00000000
C        4.28596948       7.47763108       0.00000000
C        4.28691645       8.88779273       0.00000000
C        3.05768166       9.57064584       0.00000000
C        3.15282446      10.98907112       0.00000000
C        4.22198109      11.80975067       0.00000000
C        4.19857148      13.22882588       0.00000000
C        2.93376587      14.03900598       0.00000000
C        2.90191343      15.44017205       0.00000000
C        4.06195582      16.18408690       0.00000000
C        4.11913315      17.63346501       0.00000000
C        2.88646500      18.31053742       0.00000000
C        2.79786980      19.76335685       0.00000000
C        4.04373726      20.53149660       0.00000000
C        4.33864315       0.51891612       0.00000000
C        5.49361077       1.04042069       0.00000000
C        5.62306091       2.43266703       0.00000000
C        6.75651089       3.11502328       0.00000000
C        6.81308640       4.55865649       0.00000000
C        5.53221986       5.30688241       0.00000000
C        5.54697579       6.74793058       0.00000000
C        6.70222979       7.48033580       0.00000000
C        6.79298450       8.90560497       0.00000000
C        5.51063176       9.55065532       0.00000000
C        5.48081625      10.99114853       0.00000000
C        6.64277576      11.81695306       0.00000000
C        6.58894766      13.28432144       0.00000000
C        5.32705250      14.04123427       0.00000000
C        5.37051555      15.51322747       0.00000000
C        6.54549553      16.19455792       0.00000000
C        6.52713317      17.64718343       0.00000000
C        5.24602285      18.36301863       0.00000000
C        5.27317196      19.86840567       0.00000000
C        6.49571149      20.55350501       0.00000000
C        6.73189005       0.56491702       0.00000000
C        7.93833870       1.02626778       0.00000000
C        8.07107729       2.45584650       0.00000000
C        9.24402222       3.17245968       0.00000000
C        9.27817776       4.64702118       0.00000000
C        7.95031038       5.28972387       0.00000000
C        7.99264663       6.75460639       0.00000000
C        9.12007502       7.50429861       0.00000000
C        9.14722344       8.93358820       0.00000000
C        7.91503203       9.60457919       0.00000000
C        7.89025610      11.02111357       0.00000000
C        9.06997869      11.78518910       0.00000000
C        9.05210104      13.29798371       0.00000000
C        7.73811815      14.00964500       0.00000000
C        7.78413799      15.50244086       0.00000000
C        8.94317451      16.21893716       0.00000000
C        8.88320128      17.64321000       0.00000000
C        7.67727199      18.41929041       0.00000000
C        7.70098316      19.86435889       0.00000000
C        8.92192660      20.57013489       0.00000000
C        9.17766513       0.56508538       0.00000000
C       10.41931364       1.07165856       0.00000000
C       10.50248405       2.51303109       0.00000000
C       11.63993831       3.16031647       0.00000000
C       11.74424125       4.63336282       0.00000000
C       10.49345551       5.33681623       0.00000000
C       10.35630443       6.80475537       0.00000000
C       11.57442180       7.49111180       0.00000000
C       11.67377687       8.87527946       0.00000000
C       10.38770905       9.60079484       0.00000000
C       10.38925561      11.06742427       0.00000000
C       11.49672120      11.83169595       0.00000000
C       11.48969122      13.28067150       0.00000000
C       10.19489293      14.08407647       0.00000000
C       10.20514408      15.56541087       0.00000000
C       11.39099342      16.25422868       0.00000000
C       11.33003981      17.71041947       0.00000000
C       10.06548612      18.39386557       0.00000000
C       10.16213275      19.86434511       0.00000000
C       11.35417316      20.60106315       0.00000000
C       11.62772928       0.56493540       0.00000000
C       12.87547449       1.06728449       0.00000000
C       12.91088873       2.52829741       0.00000000
C       14.10700667       3.22046955       0.00000000
C       14.17690047       4.67194962       0.00000000
C       12.91709606       5.36654175       0.00000000
C       12.87720545       6.80069924       0.00000000
C       14.00771181       7.52106881       0.00000000
C       14.11251834       8.95692059       0.00000000
C       12.81853343       9.69708073       0.00000000
C       12.82932813      11.12542067       0.00000000
C       14.02700774      11.81187452       0.00000000
C       13.93778377      13.28489504       0.00000000
C       12.61383028      14.05186224       0.00000000
C       12.67171761      15.55735964       0.00000000
C       13.88615380      16.26610798       0.00000000
C       13.75097880      17.72315229       0.00000000
C       12.52612866      18.42173087       0.00000000
C       12.57211452      19.91843261       0.00000000
C       13.82112609      20.58867559       0.00000000
C       14.11502718       0.56929729       0.00000000
C       15.33802161       1.08392669       0.00000000
C       15.37515279       2.49569865       0.00000000
C       16.56361997       3.23686339       0.00000000
C       16.61394440       4.65891767       0.00000000
C       15.35094732       5.37363995       0.00000000
C       15.28560725       6.81935921       0.00000000
C       16.48366516       7.54394365       0.00000000
C       16.54249791       8.97684442       0.00000000
C       15.28851941       9.65822453       0.00000000
C       15.29408124      11.05177050       0.00000000
C       16.42333812      11.90367250       0.00000000
C       16.37905276      13.31782745       0.00000000
C       15.08543253      14.05117972       0.00000000
C       15.12392312      15.47548942       0.00000000
C       16.23450882      16.27547636       0.00000000
C       16.29060546      17.70696277       0.00000000
C       15.02974427      18.37680852       0.00000000
C       15.01658807      19.85708749       0.00000000
C       16.24684323      20.60205062       0.00000000
C       16.51932630       0.60172851       0.00000000
C       17.72304103       1.09963820       0.00000000
C       17.85524902       2.50364804       0.00000000
C       18.99380995       3.33929863       0.00000000
C       19.02686076       4.74150840       0.00000000
C       17.74993044       5.40001221       0.00000000
C       17.78092774       6.81914419       0.00000000
C       18.91397474       7.61430060       0.00000000
C       18.97973043       8.95877918       0.00000000
C       17.76598447       9.70794534       0.00000000
C       17.69733587      11.09798803       0.00000000
C       18.82722969      11.89929513       0.00000000
C       18.79343562      13.34161977       0.00000000
C       17.52304355      14.15835389       0.00000000
C       17.54129372      15.60025672       0.00000000
C       18.70270659      16.34506319       0.00000000
C       18.73419342      17.79233527       0.00000000
C       17.46282035      18.42825323       0.00000000
C       17.47829445      19.91742059       0.00000000
C       18.71906051      20.60106060       0.00000000
C       18.95423581       0.56496930       0.00000000
C       20.16012067       1.14063461       0.00000000
C       20.23579921       2.57577931       0.00000000
C       21.38961374       3.28561082       0.00000000
C       21.40280321       4.61823137       0.00000000
C       20.22717011       5.47355616       0.00000000
C       20.20336240       6.90497566       0.00000000
C       21.37336943       7.61686326       0.00000000
C       21.38161153       8.91704094       0.00000000
C       20.13621735       9.73276975       0.00000000
C       20.17955925      11.18830982       0.00000000
C       21.37765689      11.90525328       0.00000000
C       21.36739598      13.38287243       0.00000000
C       19.93543200      14.11467965       0.00000000
C       20.06567089      15.65528538       0.00000000
C       21.38970501      16.32424362       0.00000000
C       21.34361549      17.75052179       0.00000000
C       19.96484641      18.51028254       0.00000000
C       20.03788626      20.00326966       0.00000000
C       21.39839007      20.57360148       0.00000000
C       21.40351872       0.56496625       0.00000000
