180
Lattice="22.14 0.0 0.0 0.0 21.304224933097192 0.0 0.0 0.0 12.0" Properties=species:S:1:pos:R:3 pbc="T T T"
C        1.31986004       0.12406014       0.00000000
C        0.92609903       1.63790502       0.00000000
C        2.30525311       2.66477686       0.00000000
C        1.52511083       4.16712874       0.00000000
C       -0.01063183       3.49724802       0.00000000
C        1.07274138       5.81200283       0.00000000
C        2.50964380       6.86373227       0.00000000
C        1.51642378       8.49498313       0.00000000
C       -0.01096600       7.45878448       0.00000000
C        0.90454751      10.29265373       0.00000000
C        2.54823827      10.49469966       0.00000000
C        2.59490163      11.98842646       0.00000000
C        1.18986202      12.79264251       0.00000000
C        0.82657532      14.67756371       0.00000000
C        1.94004472      15.46127300       0.00000000
C        1.52455505      16.89904366       0.00000000
C        0.62572443      17.75430265       0.00000000
C        0.45876298      19.27937623       0.00000000
C        2.40508119      19.23386726       0.00000000
C        1.45955495      20.83032550       0.00000000
C        3.72310696       0.09700202       0.00000000
C        3.26693619       1.48023802       0.00000000
C        4.63851046       2.30714656       0.00000000
C        4.57585734       3.63890431       0.00000000
C        3.40001127       4.20382486       0.00000000
C        3.51776488       5.63341600       0.00000000
C        4.84898683       6.34504142       0.00000000
C        4.94170320       7.70189815       0.00000000
C        3.47470510       8.20747127       0.00000000
C        3.89430302       9.73745375       0.00000000
C        5.05902153      10.70606274       0.00000000
C        4.80722849      12.03837732       0.00000000
C        3.68085131      13.06098828       0.00000000
C        2.93187454      14.52039608       0.00000000
C        4.17099149      15.42971852       0.00000000
C        4.97502309      17.86976948       0.00000000
C        3.90542153      16.74610852       0.00000000
C        2.79577707      17.75492036       0.00000000
C        3.83502651      19.78525647       0.00000000
C        3.87644808      21.08457814       0.00000000
C        6.17452615       0.04317112       0.00000000
C        5.72088392       1.68261370       0.00000000
C        7.25467298       2.21402619       0.00000000
C        7.04727230       3.67843547       0.00000000
C        6.08065438       4.40070697       0.00000000
C        6.03298819       5.75522306       0.00000000
C        7.32789680       6.54899390       0.00000000
C        7.57882379       7.82219046       0.00000000
C        6.32080812       8.54971584       0.00000000
C        6.12646260       9.88444912       0.00000000
C        7.39225244      10.72771163       0.00000000
C        7.26993211      12.10978221       0.00000000
C        6.08788783      13.06371098       0.00000000
C        5.40970540      14.63718474       0.00000000
C        7.69113669      14.66543774       0.00000000
C        6.59139305      15.55310519       0.00000000
C        6.27466089      16.90802638       0.00000000
C        5.18796581      19.28829939       0.00000000
C        7.44009859      19.25581011       0.00000000
C        6.41121498      20.79298895       0.00000000
C        8.98993100      -0.41718946       0.00000000
C        8.36224295       1.10484934       0.00000000
C        9.52518678       2.34105699       0.00000000
C        9.57268447       3.69784010       0.00000000
C        8.44404347       4.43847872       0.00000000
C        8.55285790       5.79008323       0.00000000
C        9.92232970       6.34220582       0.00000000
C        9.97388150       7.79735121       0.00000000
C        8.80971235       8.62816311       0.00000000
C        8.65997045       9.94349168       0.00000000
C        9.94668237      10.66407363       0.00000000
C        9.89960080      12.01189473       0.00000000
C        8.64106037      12.79828391       0.00000000
C        8.32762486      13.61659559       0.00000000
C       10.10974546      14.82861233       0.00000000
C        8.96754834      15.56564285       0.00000000
C        7.48601971      17.75931873       0.00000000
C        8.73090529      17.00655430       0.00000000
C        9.84690555      19.29305698       0.00000000
C        8.85599782      20.65089408       0.00000000
C       11.10954937       0.09241630       0.00000000
C       10.76887379       1.59895918       0.00000000
C       12.06570388       2.32572641       0.00000000
C       12.20768653       3.72927354       0.00000000
C       11.02256535       4.35023732       0.00000000
C       11.06041330       5.65606414       0.00000000
C       12.35257799       6.36710500       0.00000000
C       12.51961220       7.75613547       0.00000000
C       11.37228115       8.54332872       0.00000000
C       11.07752057       9.85387888       0.00000000
C       12.43995741      10.66129989       0.00000000
C       12.49468230      11.90544271       0.00000000
C       11.57053611      12.52746783       0.00000000
C       10.71983878      13.59071818       0.00000000
C       12.71460355      15.00021494       0.00000000
C       11.42072950      15.47687969       0.00000000
C       11.22225529      16.95766891       0.00000000
C       10.04126931      17.80410821       0.00000000
C       12.33613185      19.24544199       0.00000000
C       11.31269820      20.60750134       0.00000000
C       13.65827918       0.07701411       0.00000000
C       13.30448489       1.52374144       0.00000000
C       14.62739183       2.42875670       0.00000000
C       14.59195685       3.59719764       0.00000000
C       13.64483914       4.40681747       0.00000000
C       13.51626429       5.73783994       0.00000000
C       14.78922227       6.55317058       0.00000000
C       14.99448070       7.92547538       0.00000000
C       13.75285904       8.46589712       0.00000000
C       13.48526351       9.93297559       0.00000000
C       14.87807951      10.77903791       0.00000000
C       14.79288020      12.17941983       0.00000000
C       13.52716540      12.97932849       0.00000000
C       13.06030994      14.17994368       0.00000000
C       15.24766304      14.62031927       0.00000000
C       14.12454163      15.79804744       0.00000000
C       13.69924196      17.11859722       0.00000000
C       12.45828083      17.89836933       0.00000000
C       14.76184240      19.29683677       0.00000000
C       13.81685788      20.79417773       0.00000000
C       16.14436143       0.20428128       0.00000000
C       15.82086057       1.63943661       0.00000000
C       17.10795875       2.42523512       0.00000000
C       17.08926730       3.69555649       0.00000000
C       15.99712607       4.43924654       0.00000000
C       16.02520500       5.81710960       0.00000000
C       17.32002356       6.60188248       0.00000000
C       17.53607305       7.80777842       0.00000000
C       16.37832464       8.49538452       0.00000000
C       16.01619064       9.94377571       0.00000000
C       17.26247578      10.73303437       0.00000000
C       17.36176995      12.12923950       0.00000000
C       16.12169012      12.84034325       0.00000000
C       15.95579379      13.50447920       0.00000000
C       17.74233585      14.87206461       0.00000000
C       16.48278263      15.63345379       0.00000000
C       16.26264758      17.13159032       0.00000000
C       15.07585441      17.92695071       0.00000000
C       16.26259592      19.90356811       0.00000000
C       16.33168939      21.25384503       0.00000000
C       18.68921942       0.08577315       0.00000000
C       18.36529158       1.50128478       0.00000000
C       19.51711585       2.43236554       0.00000000
C       19.62333521       3.74645863       0.00000000
C       18.51706915       4.43925816       0.00000000
C       18.47420443       5.91973931       0.00000000
C       19.71606443       6.53865191       0.00000000
C       20.02793403       7.82407859       0.00000000
C       18.77116095       8.53685146       0.00000000
C       18.59214534      10.02558761       0.00000000
C       19.91715612      10.79835254       0.00000000
C       19.76704750      12.18713306       0.00000000
C       18.76253157      12.96394794       0.00000000
C       18.00278567      13.75621401       0.00000000
C       19.01088050      15.75074018       0.00000000
C       18.76215521      17.26372915       0.00000000
C       17.63460856      17.84362019       0.00000000
C       17.32025890      19.11249100       0.00000000
C       18.66630729      19.92947139       0.00000000
C       18.91614047      21.34766158       0.00000000
C       20.82306492       0.45526802       0.00000000
C       20.68944939       1.77263901       0.00000000
C       21.88972858       2.41597890       0.00000000
C       21.86054488       3.71554700       0.00000000
C       20.89110718       4.52528965       0.00000000
C       20.91170312       6.00604461       0.00000000
C       21.88906838       6.66036462       0.00000000
C       21.85142049       8.03491822       0.00000000
C       21.04752472       8.73224387       0.00000000
C       20.93216321      10.01093329       0.00000000
C       21.85553051      10.78092534       0.00000000
C       21.81936451      12.30927982       0.00000000
C       20.85502593      13.35249490       0.00000000
C       20.21257878      14.85689485       0.00000000
C       21.79528136      15.71932980       0.00000000
C       21.84351355      17.37388428       0.00000000
C       20.45568251      17.52952141       0.00000000
C       19.98456048      19.27208468       0.00000000
C       21.82571328      19.57298134       0.00000000
C       21.83030053      21.03133646       0.00000000
