180
Lattice="22.14 0.0 0.0 0.0 21.304224933097192 0.0 0.0 0.0 12.0" Properties=species:S:1:pos:R:3 pbc="T T T"
C        0.87291793       1.30575164       0.00000000
C        0.93395838       2.58689763       0.00000000
C        2.05785099       3.36517312       0.00000000
C        2.05985545       4.72481187       0.00000000
C        0.85215235       5.45297197       0.00000000
C        0.87483636       6.85460044       0.00000000
C        1.94080717       7.72038090       0.00000000
C        1.96182341       9.04170929       0.00000000
C        0.92304116       9.85253581       0.00000000
C        0.80129386      11.18931966       0.00000000
C        1.94055868      11.99108973       0.00000000
C        1.85645498      13.40468687       0.00000000
C        0.71823925      14.24320965       0.00000000
C        0.65172171      15.67765813       0.00000000
C        1.75996176      16.44979282       0.00000000
C        1.74632777      17.72625088       0.00000000
C        0.68075181      18.54126305       0.00000000
C        0.59932556      19.93310161       0.00000000
C        1.69222791      20.64666810       0.00000000
C        1.97264466       0.64013493       0.00000000
C        3.10664246       1.32632202       0.00000000
C        3.15192311       2.58217566       0.00000000
C        4.34519464       3.33806668       0.00000000
C        4.36567910       4.75814158       0.00000000
C        3.19424679       5.57509567       0.00000000
C        3.04609079       6.95820877       0.00000000
C        4.25800041       7.69373558       0.00000000
C        4.28871615       9.07590844       0.00000000
C        3.07349078       9.81708493       0.00000000
C        3.07829740      11.25115620       0.00000000
C        4.23109423      12.00472833       0.00000000
C        4.13668980      13.42847656       0.00000000
C        2.93776789      14.25296551       0.00000000
C        2.87809852      15.65734116       0.00000000
C        4.09453074      16.38770592       0.00000000
C        4.07921218      17.79833774       0.00000000
C        2.88371710      18.56324475       0.00000000
C        2.76709737      19.93927860       0.00000000
C        4.00256335      20.72371843       0.00000000
C        4.30272854       0.63579520       0.00000000
C        5.53807828       1.35060677       0.00000000
C        5.53723413       2.64073664       0.00000000
C        6.76856626       3.37110694       0.00000000
C        6.81308766       4.71943158       0.00000000
C        5.57194776       5.54738508       0.00000000
C        5.51642615       6.92413004       0.00000000
C        6.70976689       7.70947758       0.00000000
C        6.70064755       9.10206259       0.00000000
C        5.52058564       9.82070406       0.00000000
C        5.47509840      11.24219156       0.00000000
C        6.67688246      11.95698513       0.00000000
C        6.57134505      13.45471749       0.00000000
C        5.34941636      14.27833236       0.00000000
C        5.27956699      15.71252545       0.00000000
C        6.48219958      16.43281618       0.00000000
C        6.47673274      17.77194587       0.00000000
C        5.25736137      18.65684303       0.00000000
C        5.24977867      20.02088633       0.00000000
C        6.46103234      20.71371355       0.00000000
C        6.69490703       0.68201230       0.00000000
C        7.94009384       1.34350517       0.00000000
C        8.03260590       2.67071425       0.00000000
C        9.24844947       3.38494569       0.00000000
C        9.25300844       4.79267871       0.00000000
C        8.00856422       5.48866104       0.00000000
C        7.97787120       6.93269820       0.00000000
C        9.18126728       7.78749615       0.00000000
C        9.13507166       9.12309220       0.00000000
C        7.94942532       9.87009055       0.00000000
C        7.90142278      11.24013471       0.00000000
C        9.12800502      11.98562727       0.00000000
C        9.02864340      13.47363176       0.00000000
C        7.76938600      14.27219542       0.00000000
C        7.73602167      15.65316542       0.00000000
C        9.01099240      16.44415389       0.00000000
C        8.95120204      17.84172737       0.00000000
C        7.73391641      18.66282402       0.00000000
C        7.66180301      20.00590406       0.00000000
C        8.87588540      20.71074719       0.00000000
C        9.15695934       0.65674466       0.00000000
C       10.40509568       1.33669764       0.00000000
C       10.48978726       2.68502881       0.00000000
C       11.66553930       3.43440010       0.00000000
C       11.65588132       4.77478414       0.00000000
C       10.45869174       5.60896718       0.00000000
C       10.31686663       6.95474859       0.00000000
C       11.57099907       7.76497825       0.00000000
C       11.62455860       9.12074509       0.00000000
C       10.41322974       9.83114028       0.00000000
C       10.37330230      11.26349212       0.00000000
C       11.51720133      12.09030575       0.00000000
C       11.48618118      13.48321197       0.00000000
C       10.24052786      14.33318384       0.00000000
C       10.18743168      15.73227872       0.00000000
C       11.37486088      16.53329833       0.00000000
C       11.36475890      17.86560480       0.00000000
C       10.13747535      18.65285812       0.00000000
C       10.09629741      20.03640502       0.00000000
C       11.33141507      20.78943172       0.00000000
C       11.63367871       0.69602009       0.00000000
C       12.93110379       1.35159812       0.00000000
C       12.85983142       2.66335278       0.00000000
C       14.13462535       3.43216036       0.00000000
C       14.15570813       4.84210665       0.00000000
C       12.89759137       5.58476445       0.00000000
C       12.86755893       6.95555001       0.00000000
C       14.06616776       7.77972073       0.00000000
C       14.09576165       9.13159933       0.00000000
C       12.87787288       9.89484608       0.00000000
C       12.75515244      11.31810860       0.00000000
C       14.04773537      12.00529021       0.00000000
C       13.92736923      13.46301613       0.00000000
C       12.65326089      14.32988350       0.00000000
C       12.62829914      15.74541992       0.00000000
C       13.89472412      16.57529596       0.00000000
C       13.84484414      17.91288415       0.00000000
C       12.60467538      18.64642404       0.00000000
C       12.55427539      20.05302494       0.00000000
C       13.74932247      20.82819595       0.00000000
C       14.13310495       0.64889226       0.00000000
C       15.34005571       1.39567122       0.00000000
C       15.38854732       2.69975205       0.00000000
C       16.58094930       3.46257128       0.00000000
C       16.60715695       4.84862555       0.00000000
C       15.36122655       5.60388576       0.00000000
C       15.27942106       7.05377235       0.00000000
C       16.46145844       7.83287531       0.00000000
C       16.55835393       9.17248943       0.00000000
C       15.31783534       9.88517499       0.00000000
C       15.27534660      11.25567872       0.00000000
C       16.47725231      12.12552405       0.00000000
C       16.31070653      13.50998583       0.00000000
C       15.11342974      14.40477721       0.00000000
C       15.08145381      15.78716274       0.00000000
C       16.28828020      16.54095532       0.00000000
C       16.27257860      17.91785908       0.00000000
C       15.06703075      18.67458319       0.00000000
C       15.01130550      20.05060766       0.00000000
C       16.20709187      20.80069470       0.00000000
C       16.53929557       0.69091347       0.00000000
C       17.77031278       1.38503486       0.00000000
C       17.82270693       2.69285371       0.00000000
C       19.05987840       3.51171148       0.00000000
C       19.06888976       4.87261722       0.00000000
C       17.84894059       5.61055239       0.00000000
C       17.75658181       7.04002324       0.00000000
C       18.98343290       7.84917769       0.00000000
C       18.96314220       9.17506433       0.00000000
C       17.84777076       9.91494281       0.00000000
C       17.71575860      11.26080882       0.00000000
C       18.88878695      12.09719296       0.00000000
C       18.79686285      13.53968977       0.00000000
C       17.56184638      14.31801829       0.00000000
C       17.49370089      15.79770088       0.00000000
C       18.71784048      16.53999117       0.00000000
C       18.80256900      17.89191239       0.00000000
C       17.54514505      18.64087462       0.00000000
C       17.41932973      20.09050243       0.00000000
C       18.70837799      20.82079415       0.00000000
C       18.96898657       0.69575071       0.00000000
C       20.21636581       1.38629876       0.00000000
C       20.24267857       2.76192855       0.00000000
C       21.50796232       3.55242707       0.00000000
C       21.47378118       4.80189622       0.00000000
C       20.23587807       5.62142567       0.00000000
C       20.18688505       7.02776561       0.00000000
C       21.41783751       7.88074401       0.00000000
C       21.47520307       9.11927079       0.00000000
C       20.21664551       9.92356957       0.00000000
C       20.15742352      11.31697893       0.00000000
C       21.33145825      12.15673463       0.00000000
C       21.33060649      13.52518708       0.00000000
C       20.04870043      14.32283311       0.00000000
C       20.01127843      15.77830163       0.00000000
C       21.18861653      16.62391588       0.00000000
C       21.26185383      17.91085846       0.00000000
C       20.01536566      18.68816513       0.00000000
C       19.94597649      20.06310795       0.00000000
C       21.32032643      20.88082013       0.00000000
C       21.67128828       0.57292726       0.00000000
