180
Lattice="22.14 0.0 0.0 0.0 21.304224933097192 0.0 0.0 0.0 12.0" Properties=species:S:1:pos:R:3 pbc="T T T"
C        1.13700416       0.90274768       0.00000000
C        1.20818160       2.30959244       0.00000000
C        2.33371969       2.96492606       0.00000000
C        2.39296661       4.36769932       0.00000000
C        1.19421214       5.09273089       0.00000000
C        1.20311003       6.55403825       0.00000000
C        2.28309841       7.29408421       0.00000000
C        2.31516760       8.69105338       0.00000000
C        1.14677963       9.36997314       0.00000000
C        1.15181694      10.81951638       0.00000000
C        2.22910455      11.60437561       0.00000000
C        2.19802395      13.04624199       0.00000000
C        1.00585015      13.76658717       0.00000000
C        0.99926880      15.21497436       0.00000000
C        2.07562790      16.03406314       0.00000000
C        2.11800062      17.40235991       0.00000000
C        0.95437485      18.15588388       0.00000000
C        0.94149794      19.55875068       0.00000000
C        2.06804492      20.24892913       0.00000000
C        2.31458868       0.24097753       0.00000000
C        3.42159918       0.92803406       0.00000000
C        3.48420184       2.26212071       0.00000000
C        4.64258649       2.95740257       0.00000000
C        4.67278748       4.39108276       0.00000000
C        3.47348202       5.14189902       0.00000000
C        3.45269156       6.54813399       0.00000000
C        4.59684890       7.31152423       0.00000000
C        4.61419553       8.69941033       0.00000000
C        3.42157766       9.40997814       0.00000000
C        3.44612251      10.83232205       0.00000000
C        4.55544203      11.63231713       0.00000000
C        4.50883450      13.06428152       0.00000000
C        3.28500410      13.82360198       0.00000000
C        3.25568148      15.24512354       0.00000000
C        4.41264467      15.99086793       0.00000000
C        4.45929875      17.41932273       0.00000000
C        3.23050951      18.16245685       0.00000000
C        3.19357631      19.56428046       0.00000000
C        4.41510102      20.27269688       0.00000000
C        4.61296922       0.23338099       0.00000000
C        5.81269749       0.90771787       0.00000000
C        5.87952634       2.28110025       0.00000000
C        7.06538811       2.97186892       0.00000000
C        7.11267386       4.40407186       0.00000000
C        5.84458845       5.12719551       0.00000000
C        5.83331742       6.55459092       0.00000000
C        7.02964634       7.32620786       0.00000000
C        7.09254131       8.73968950       0.00000000
C        5.84361967       9.42340698       0.00000000
C        5.79441356      10.86956106       0.00000000
C        6.98022717      11.61755189       0.00000000
C        6.92933227      13.09500466       0.00000000
C        5.66884559      13.82400747       0.00000000
C        5.65835468      15.25857559       0.00000000
C        6.84829052      16.01347197       0.00000000
C        6.87934146      17.46359022       0.00000000
C        5.62553721      18.18235374       0.00000000
C        5.63148560      19.61234665       0.00000000
C        6.84456232      20.28085899       0.00000000
C        7.03997359       0.30191577       0.00000000
C        8.24829705       0.92873949       0.00000000
C        8.35090025       2.29101907       0.00000000
C        9.54316376       2.99792681       0.00000000
C        9.58711967       4.42525996       0.00000000
C        8.27783549       5.13762022       0.00000000
C        8.31627186       6.58471756       0.00000000
C        9.47329264       7.32704520       0.00000000
C        9.48378481       8.75295931       0.00000000
C        8.26718459       9.46764447       0.00000000
C        8.21690024      10.87268654       0.00000000
C        9.42519138      11.62195821       0.00000000
C        9.39243132      13.09715786       0.00000000
C        8.09962461      13.84325825       0.00000000
C        8.11915771      15.30500566       0.00000000
C        9.30606446      16.09948193       0.00000000
C        9.28340603      17.46159331       0.00000000
C        8.09231800      18.17552117       0.00000000
C        8.06021008      19.57878601       0.00000000
C        9.27052996      20.31129832       0.00000000
C        9.50449083       0.28026625       0.00000000
C       10.72053630       0.94046213       0.00000000
C       10.76797338       2.31914578       0.00000000
C       11.94485635       3.00899429       0.00000000
C       12.00827801       4.44438036       0.00000000
C       10.77394141       5.15909904       0.00000000
C       10.70313256       6.60110119       0.00000000
C       11.91625766       7.35173499       0.00000000
C       11.95745664       8.73996132       0.00000000
C       10.72169874       9.46716374       0.00000000
C       10.72161629      10.90032941       0.00000000
C       11.86219821      11.66204377       0.00000000
C       11.80844332      13.12786671       0.00000000
C       10.54463426      13.90160994       0.00000000
C       10.53484641      15.35090854       0.00000000
C       11.75132536      16.06785623       0.00000000
C       11.72210917      17.49181818       0.00000000
C       10.43514087      18.17250883       0.00000000
C       10.46380743      19.59760163       0.00000000
C       11.71078086      20.36403844       0.00000000
C       11.94323093       0.31622716       0.00000000
C       13.19056498       0.97104168       0.00000000
C       13.19038375       2.35203621       0.00000000
C       14.42844892       3.03757397       0.00000000
C       14.46921895       4.47673530       0.00000000
C       13.20143574       5.16451574       0.00000000
C       13.19819685       6.61436931       0.00000000
C       14.37481721       7.37538686       0.00000000
C       14.43063547       8.75723094       0.00000000
C       13.17714448       9.48779302       0.00000000
C       13.13704421      10.91955766       0.00000000
C       14.34279347      11.64404054       0.00000000
C       14.26255180      13.12463697       0.00000000
C       12.98942615      13.88157748       0.00000000
C       13.00595577      15.35428063       0.00000000
C       14.20438666      16.09813546       0.00000000
C       14.15133387      17.50331928       0.00000000
C       12.94232448      18.21032036       0.00000000
C       12.92753311      19.64484047       0.00000000
C       14.16475131      20.34252453       0.00000000
C       14.42965664       0.31432317       0.00000000
C       15.66929520       0.97131099       0.00000000
C       15.71354075       2.33390541       0.00000000
C       16.89003657       3.04144226       0.00000000
C       16.92475926       4.48382701       0.00000000
C       15.64757228       5.21784238       0.00000000
C       15.61705915       6.65383813       0.00000000
C       16.80843503       7.38078372       0.00000000
C       16.86925012       8.78840608       0.00000000
C       15.61427359       9.49328838       0.00000000
C       15.58967845      10.92192080       0.00000000
C       16.77189463      11.68861871       0.00000000
C       16.69820056      13.15079489       0.00000000
C       15.42544638      13.90376838       0.00000000
C       15.43384861      15.34531757       0.00000000
C       16.61183596      16.09196199       0.00000000
C       16.63584851      17.50881871       0.00000000
C       15.38309047      18.20856760       0.00000000
C       15.36920884      19.63375362       0.00000000
C       16.61785022      20.35738349       0.00000000
C       16.86367215       0.38218657       0.00000000
C       18.04579828       0.97886730       0.00000000
C       18.14966000       2.32178774       0.00000000
C       19.30244107       3.11546265       0.00000000
C       19.34440098       4.49061129       0.00000000
C       18.10594852       5.21541258       0.00000000
C       18.09181784       6.68009879       0.00000000
C       19.27614712       7.41511125       0.00000000
C       19.26708947       8.77604898       0.00000000
C       18.05573801       9.50802103       0.00000000
C       18.00288952      10.89270239       0.00000000
C       19.14813809      11.67667740       0.00000000
C       19.13143460      13.12846193       0.00000000
C       17.88868773      13.90924074       0.00000000
C       17.89772575      15.39400826       0.00000000
C       19.07052327      16.12365861       0.00000000
C       19.09616098      17.53495745       0.00000000
C       17.85850221      18.20982137       0.00000000
C       17.86313722      19.65966949       0.00000000
C       19.05971155      20.37329546       0.00000000
C       19.24159722       0.34172914       0.00000000
C       20.42820946       0.98610383       0.00000000
C       20.48983132       2.37698184       0.00000000
C       21.60293004       2.99437555       0.00000000
C       21.66135310       4.46137027       0.00000000
C       20.46163308       5.21243262       0.00000000
C       20.47147561       6.64416152       0.00000000
C       21.51568856       7.34607892       0.00000000
C       21.63533418       8.74004436       0.00000000
C       20.42728824       9.48795945       0.00000000
C       20.41103183      10.93102080       0.00000000
C       21.48460015      11.63210367       0.00000000
C       21.50238909      13.17549874       0.00000000
C       20.23642291      13.86860851       0.00000000
C       20.24537223      15.30228084       0.00000000
C       21.31306983      16.05267446       0.00000000
C       21.46526346      17.55912853       0.00000000
C       20.23351208      18.26841598       0.00000000
C       20.24434350      19.63703159       0.00000000
C       21.36363968      20.29322727       0.00000000
C       21.65465669       0.29609524       0.00000000
